
 Fire Dynamics Simulator

 Current Date     : July 26, 2018  11:11:07
 Revision         : FDS6.6.0-2216-g1c12f40-master
 Revision Date    : Tue Jun 5 17:05:52 2018 -0400
 Compiler         : 
 Compilation Date : Jun 06, 2018  15:10:42

 MPI Enabled;    Number of MPI Processes:       1
 OpenMP Enabled; Number of OpenMP Threads:      1

 MPI version: 3.1
 MPI library version: Open MPI v2.1.3, package: Open MPI tstopi@espvm5m030.ad.vtt.fi Distribution, ident: 2.1.3, repo rev: v2.1.2-129-gcfd8f3f, Mar 13, 2018

 Job TITLE        : Birch cone calorimeter.  gronli scheme
 Job ID string    : birch_cone_75


 Grid Dimensions, Mesh     1

   Cells in the X Direction             6
   Cells in the Y Direction             6
   Cells in the Z Direction             8


 Physical Dimensions, Mesh     1

   Length (m)                       0.300
   Width  (m)                       0.300
   Height (m)                       0.400
   Initial Time Step (s)            0.500


 Miscellaneous Parameters

   Simulation Start Time (s)          0.0
   Simulation End Time (s)         1200.0
   LES Calculation
   Eddy Viscosity:           Deardorff Model (C_DEARDORFF)                          0.10
   Near-wall Eddy Viscosity: Smagorinsky with Van Driest damping (C_SMAGORINSKY)    0.20
   Turbulent Prandtl Number          0.50
   Turbulent Schmidt Number          0.50
   Ambient Temperature (C)          20.00


 Mass Fraction Transformation Matrix to Convert Species Mixtures (Columns) to Primitive Species (Rows)

                         AIR       PROPANE   PRODUCTS  WATER VA
   PROPANE               0.000000  1.000000  0.000000  0.000000
   NITROGEN              0.763077  0.000000  0.717370  0.000000
   OXYGEN                0.231181  0.000000  0.000000  0.000000
   CARBON DIOXIDE        0.000592  0.000000  0.179902  0.000000
   CARBON MONOXIDE       0.000000  0.000000  0.000000  0.000000
   WATER VAPOR           0.005149  0.000000  0.102728  1.000000
   SOOT                  0.000000  0.000000  0.000000  0.000000
   HYDROGEN              0.000000  0.000000  0.000000  0.000000


 Primitive Species Information

   PROPANE
   Gas Species
   Molecular Weight (g/mol)            44.09562
   Ambient Density (kg/m^3)            1.833
   Enthalpy of Formation (J/kg)       -2.37E+06

   NITROGEN
   Gas Species
   Molecular Weight (g/mol)            28.01340
   Ambient Density (kg/m^3)            1.165
   Enthalpy of Formation (J/kg)        0.00E+00

   OXYGEN
   Gas Species
   Molecular Weight (g/mol)            31.99880
   Ambient Density (kg/m^3)            1.330
   Enthalpy of Formation (J/kg)        0.00E+00

   CARBON DIOXIDE
   Gas Species
   Molecular Weight (g/mol)            44.00950
   Ambient Density (kg/m^3)            1.830
   Enthalpy of Formation (J/kg)       -8.94E+06

   CARBON MONOXIDE
   Gas Species
   Molecular Weight (g/mol)            28.01010
   Ambient Density (kg/m^3)            1.164
   Enthalpy of Formation (J/kg)       -3.95E+06

   WATER VAPOR
   Gas Species
   Molecular Weight (g/mol)            18.01528
   Ambient Density (kg/m^3)            0.749
   Enthalpy of Formation (J/kg)       -1.34E+07

   SOOT
   Gas Species
   Molecular Weight (g/mol)            10.91042
   Ambient Density (kg/m^3)            0.454
   Enthalpy of Formation (J/kg)        0.00E+00

   HYDROGEN
   Gas Species
   Molecular Weight (g/mol)             2.01588
   Ambient Density (kg/m^3)            0.084
   Enthalpy of Formation (J/kg)        0.00E+00


 Tracked (Lumped) Species Information

   AIR
   Molecular Weight (g/mol)            28.76564
   Ambient Density (kg/m^3)            1.196
   Initial Mass Fraction               1.000
   Enthalpy of Formation (J/kg)     -7.44E+04

   Sub Species                    Mass Fraction     Mole Fraction
   NITROGEN                       7.630774E-01      7.835682E-01
   OXYGEN                         2.311814E-01      2.078229E-01
   CARBON DIOXIDE                 5.919362E-04      3.869034E-04
   WATER VAPOR                    5.149269E-03      8.222023E-03
 
     Viscosity (kg/m/s) Ambient,  293 K:  1.80E-05
                                  500 K:  2.61E-05
                                 1000 K:  4.13E-05
                                 1500 K:  5.37E-05
   Therm. Cond. (W/m/K) Ambient,  293 K:  2.56E-02
                                  500 K:  3.81E-02
                                 1000 K:  6.68E-02
                                 1500 K:  9.24E-02
        Enthalpy (J/kg) Ambient,  293 K: -7.97E+04
                                  500 K:  1.33E+05
                                 1000 K:  6.82E+05
                                 1500 K:  1.28E+06
    Spec. Heat (J/kg/K) Ambient,  293 K:  1.02E+03
                                  500 K:  1.04E+03
                                 1000 K:  1.16E+03
                                 1500 K:  1.23E+03
   Diff. Coeff. (m^2/s) Ambient,  293 K:  1.99E-05
                                  500 K:  4.96E-05
                                 1000 K:  1.58E-04
                                 1500 K:  3.09E-04

   PROPANE
   Molecular Weight (g/mol)            44.09562
   Ambient Density (kg/m^3)            1.833
   Initial Mass Fraction               0.000
   Enthalpy of Formation (J/kg)     -2.37E+06

   Sub Species                    Mass Fraction     Mole Fraction
   PROPANE                        1.000000E+00      1.000000E+00
 
     Viscosity (kg/m/s) Ambient,  293 K:  8.08E-06
                                  500 K:  1.31E-05
                                 1000 K:  2.23E-05
                                 1500 K:  2.96E-05
   Therm. Cond. (W/m/K) Ambient,  293 K:  1.66E-02
                                  500 K:  4.18E-02
                                 1000 K:  1.11E-01
                                 1500 K:  1.72E-01
        Enthalpy (J/kg) Ambient,  293 K: -2.38E+06
                                  500 K: -1.95E+06
                                 1000 K: -2.77E+05
                                 1500 K:  1.90E+06
    Spec. Heat (J/kg/K) Ambient,  293 K:  1.65E+03
                                  500 K:  2.55E+03
                                 1000 K:  3.96E+03
                                 1500 K:  4.67E+03
   Diff. Coeff. (m^2/s) Ambient,  293 K:  1.11E-05
                                  500 K:  2.86E-05
                                 1000 K:  9.32E-05
                                 1500 K:  1.83E-04

   PRODUCTS
   Molecular Weight (g/mol)            28.25005
   Ambient Density (kg/m^3)            1.174
   Initial Mass Fraction               0.000
   Enthalpy of Formation (J/kg)     -2.99E+06

   Sub Species                    Mass Fraction     Mole Fraction
   NITROGEN                       7.173698E-01      7.234301E-01
   CARBON DIOXIDE                 1.799024E-01      1.154808E-01
   CARBON MONOXIDE                0.000000E+00      0.000000E+00
   WATER VAPOR                    1.027278E-01      1.610891E-01
   SOOT                           0.000000E+00      0.000000E+00
 
     Viscosity (kg/m/s) Ambient,  293 K:  1.61E-05
                                  500 K:  2.39E-05
                                 1000 K:  3.90E-05
                                 1500 K:  5.15E-05
   Therm. Cond. (W/m/K) Ambient,  293 K:  2.34E-02
                                  500 K:  3.62E-02
                                 1000 K:  6.71E-02
                                 1500 K:  9.62E-02
        Enthalpy (J/kg) Ambient,  293 K: -2.99E+06
                                  500 K: -2.76E+06
                                 1000 K: -2.15E+06
                                 1500 K: -1.48E+06
    Spec. Heat (J/kg/K) Ambient,  293 K:  1.09E+03
                                  500 K:  1.14E+03
                                 1000 K:  1.29E+03
                                 1500 K:  1.40E+03
   Diff. Coeff. (m^2/s) Ambient,  293 K:  1.95E-05
                                  500 K:  4.95E-05
                                 1000 K:  1.60E-04
                                 1500 K:  3.14E-04

   WATER VAPOR
   Molecular Weight (g/mol)            18.01528
   Ambient Density (kg/m^3)            0.749
   Initial Mass Fraction               0.000
   Enthalpy of Formation (J/kg)     -1.34E+07

   Sub Species                    Mass Fraction     Mole Fraction
   WATER VAPOR                    1.000000E+00      1.000000E+00
 
     Viscosity (kg/m/s) Ambient,  293 K:  1.05E-05
                                  500 K:  1.77E-05
                                 1000 K:  3.58E-05
                                 1500 K:  5.21E-05
   Therm. Cond. (W/m/K) Ambient,  293 K:  1.96E-02
                                  500 K:  3.46E-02
                                 1000 K:  8.21E-02
                                 1500 K:  1.37E-01
        Enthalpy (J/kg) Ambient,  293 K: -1.34E+07
                                  500 K: -1.30E+07
                                 1000 K: -1.20E+07
                                 1500 K: -1.07E+07
    Spec. Heat (J/kg/K) Ambient,  293 K:  1.86E+03
                                  500 K:  1.96E+03
                                 1000 K:  2.29E+03
                                 1500 K:  2.63E+03
   Diff. Coeff. (m^2/s) Ambient,  293 K:  2.10E-05
                                  500 K:  5.78E-05
                                 1000 K:  1.98E-04
                                 1500 K:  3.95E-04


 Gas Phase Reaction Information

   Reaction ID:  PROPANE

   Fuel                                           Heat of Combustion (kJ/kg)
   PROPANE                                                        46334.6246

   Stoichiometry

   Primitive Species Stoich. Coeff.
   Species ID                                                          Molar
   PROPANE                                                         -1.000000
   OXYGEN                                                          -5.000000
   CARBON DIOXIDE                                                   3.000000
   WATER VAPOR                                                      4.000000

   Tracked (Lumped) Species Stoich. Coeff.
   Species ID                                             Molar         Mass
   AIR                                               -24.058952   -15.694783
   PROPANE                                            -1.000000    -1.000000
   PRODUCTS                                           26.058952    16.694783

   Reaction Kinetics

   Arrhenius Parameters
   Pre-exponential:    Infinite
   Activation Energy:  N/A

   ODE Solver:  EXPLICIT EULER
   Extinction Model:  EXTINCTION 2
   Ignition Temperature (K):            0.0
   Critical Flame Temperature (K):   1720.2


 Material Information

   1 WATER                                                       
     Emissivity                      1.000
     Density (kg/m3)                1000.0
     Specific Heat (kJ/kg/K)      4.30E+00
     Conductivity (W/m/K)           0.3000
     Reaction  1
        Gaseous Yields:
        AIR                                                         :     0.00
        PROPANE                                                     :     0.00
        PRODUCTS                                                    :     0.00
        WATER VAPOR                                                 :     1.00
        A (1/s)    :  2.13E+21
        E (kJ/kmol):  1.33E+05
        H_R (kJ/kg):  2.26E+03
        N_S        :     3.67

   2 SELLU                                                       
     Emissivity                      1.000
     Density (kg/m3)                 600.0
     Specific Heat (kJ/kg/K)      1.98E+00
     Conductivity (W/m/K)           0.1208
     Reaction  1
        Residue: CHAR, Yield:  0.032
        Gaseous Yields:
        AIR                                                         :     0.00
        PROPANE                                                     :     0.97
        PRODUCTS                                                    :     0.00
        WATER VAPOR                                                 :     0.00
        A (1/s)    :  6.69E+11
        E (kJ/kmol):  1.72E+05
        H_R (kJ/kg):  1.00E+02
        N_S        :     0.49

   3 HEMISELLU                                                   
     Emissivity                      1.000
     Density (kg/m3)                 600.0
     Specific Heat (kJ/kg/K)      1.98E+00
     Conductivity (W/m/K)           0.1208
     Reaction  1
        Residue: CHAR, Yield:  0.087
        Gaseous Yields:
        AIR                                                         :     0.00
        PROPANE                                                     :     0.91
        PRODUCTS                                                    :     0.00
        WATER VAPOR                                                 :     0.00
        A (1/s)    :  2.08E+11
        E (kJ/kmol):  1.47E+05
        H_R (kJ/kg):  4.00E+02
        N_S        :     1.03

   4 LIGNIN                                                      
     Emissivity                      0.800
     Density (kg/m3)                 600.0
     Specific Heat (kJ/kg/K)      1.98E+00
     Conductivity (W/m/K)           0.1208
     Reaction  1
        Residue: CHAR, Yield:  0.487
        Gaseous Yields:
        AIR                                                         :     0.00
        PROPANE                                                     :     0.51
        PRODUCTS                                                    :     0.00
        WATER VAPOR                                                 :     0.00
        A (1/s)    :  4.84E+10
        E (kJ/kmol):  1.59E+05
        H_R (kJ/kg):  3.00E+02
        N_S        :     4.98

   5 CHAR                                                        
     Emissivity                      1.000
     Density (kg/m3)                 364.5
     Specific Heat (kJ/kg/K)      1.86E+00
     Conductivity (W/m/K)           0.1093

   6 WOOL                                                        
     Emissivity                      1.000
     Density (kg/m3)                  64.0
     Specific Heat (kJ/kg/K)      7.00E-01
     Conductivity (W/m/K)           0.0800


 Surface Conditions

   0 INERT (DEFAULT)

   1 BIRCH
     Material List
          1  SELLU
          2  HEMISELLU
          3  LIGNIN
          4  WATER
          5  WOOL
          6  CHAR
     Layer  1
        Thickness   (m):  0.02000
        Density (kg/m3):   614.75
        SELLU, Mass fraction:    0.48
        HEMISELLU, Mass fraction:    0.24
        LIGNIN, Mass fraction:    0.22
        WATER, Mass fraction:    0.06
     Layer  2
        Thickness   (m):  0.03000
        Density (kg/m3):    64.00
        WOOL, Mass fraction:    1.00
     Total surface density    14.215 kg/m2
     Solid Phase Node, Layer, Coordinates(m):
                    0      1       0.0000000
                    1      1       0.0000200
                    2      1       0.0000400
                    3      1       0.0000601
                    4      1       0.0000801
                    5      1       0.0001001
                    6      1       0.0001201
                    7      1       0.0001401
                    8      1       0.0001602
                    9      1       0.0001802
                   10      1       0.0002002
                   11      1       0.0002202
                   12      1       0.0002402
                   13      1       0.0002603
                   14      1       0.0002803
                   15      1       0.0003003
                   16      1       0.0003203
                   17      1       0.0003403
                   18      1       0.0003604
                   19      1       0.0003804
                   20      1       0.0004004
                   21      1       0.0004204
                   22      1       0.0004404
                   23      1       0.0004605
                   24      1       0.0004805
                   25      1       0.0005005
                   26      1       0.0005205
                   27      1       0.0005405
                   28      1       0.0005606
                   29      1       0.0005806
                   30      1       0.0006006
                   31      1       0.0006206
                   32      1       0.0006406
                   33      1       0.0006607
                   34      1       0.0006807
                   35      1       0.0007007
                   36      1       0.0007207
                   37      1       0.0007407
                   38      1       0.0007608
                   39      1       0.0007808
                   40      1       0.0008008
                   41      1       0.0008208
                   42      1       0.0008408
                   43      1       0.0008609
                   44      1       0.0008809
                   45      1       0.0009009
                   46      1       0.0009209
                   47      1       0.0009409
                   48      1       0.0009610
                   49      1       0.0009810
                   50      1       0.0010010
                   51      1       0.0010210
                   52      1       0.0010410
                   53      1       0.0010611
                   54      1       0.0010811
                   55      1       0.0011011
                   56      1       0.0011211
                   57      1       0.0011411
                   58      1       0.0011612
                   59      1       0.0011812
                   60      1       0.0012012
                   61      1       0.0012212
                   62      1       0.0012412
                   63      1       0.0012613
                   64      1       0.0012813
                   65      1       0.0013013
                   66      1       0.0013213
                   67      1       0.0013413
                   68      1       0.0013614
                   69      1       0.0013814
                   70      1       0.0014014
                   71      1       0.0014214
                   72      1       0.0014414
                   73      1       0.0014615
                   74      1       0.0014815
                   75      1       0.0015015
                   76      1       0.0015215
                   77      1       0.0015415
                   78      1       0.0015616
                   79      1       0.0015816
                   80      1       0.0016016
                   81      1       0.0016216
                   82      1       0.0016416
                   83      1       0.0016617
                   84      1       0.0016817
                   85      1       0.0017017
                   86      1       0.0017217
                   87      1       0.0017417
                   88      1       0.0017618
                   89      1       0.0017818
                   90      1       0.0018018
                   91      1       0.0018218
                   92      1       0.0018418
                   93      1       0.0018619
                   94      1       0.0018819
                   95      1       0.0019019
                   96      1       0.0019219
                   97      1       0.0019419
                   98      1       0.0019620
                   99      1       0.0019820
                  100      1       0.0020020
                  101      1       0.0020220
                  102      1       0.0020420
                  103      1       0.0020621
                  104      1       0.0020821
                  105      1       0.0021021
                  106      1       0.0021221
                  107      1       0.0021421
                  108      1       0.0021622
                  109      1       0.0021822
                  110      1       0.0022022
                  111      1       0.0022222
                  112      1       0.0022422
                  113      1       0.0022623
                  114      1       0.0022823
                  115      1       0.0023023
                  116      1       0.0023223
                  117      1       0.0023423
                  118      1       0.0023624
                  119      1       0.0023824
                  120      1       0.0024024
                  121      1       0.0024224
                  122      1       0.0024424
                  123      1       0.0024625
                  124      1       0.0024825
                  125      1       0.0025025
                  126      1       0.0025225
                  127      1       0.0025425
                  128      1       0.0025626
                  129      1       0.0025826
                  130      1       0.0026026
                  131      1       0.0026226
                  132      1       0.0026426
                  133      1       0.0026627
                  134      1       0.0026827
                  135      1       0.0027027
                  136      1       0.0027227
                  137      1       0.0027427
                  138      1       0.0027628
                  139      1       0.0027828
                  140      1       0.0028028
                  141      1       0.0028228
                  142      1       0.0028428
                  143      1       0.0028629
                  144      1       0.0028829
                  145      1       0.0029029
                  146      1       0.0029229
                  147      1       0.0029429
                  148      1       0.0029630
                  149      1       0.0029830
                  150      1       0.0030030
                  151      1       0.0030230
                  152      1       0.0030430
                  153      1       0.0030631
                  154      1       0.0030831
                  155      1       0.0031031
                  156      1       0.0031231
                  157      1       0.0031431
                  158      1       0.0031632
                  159      1       0.0031832
                  160      1       0.0032032
                  161      1       0.0032232
                  162      1       0.0032432
                  163      1       0.0032633
                  164      1       0.0032833
                  165      1       0.0033033
                  166      1       0.0033233
                  167      1       0.0033433
                  168      1       0.0033634
                  169      1       0.0033834
                  170      1       0.0034034
                  171      1       0.0034234
                  172      1       0.0034434
                  173      1       0.0034635
                  174      1       0.0034835
                  175      1       0.0035035
                  176      1       0.0035235
                  177      1       0.0035435
                  178      1       0.0035636
                  179      1       0.0035836
                  180      1       0.0036036
                  181      1       0.0036236
                  182      1       0.0036436
                  183      1       0.0036637
                  184      1       0.0036837
                  185      1       0.0037037
                  186      1       0.0037237
                  187      1       0.0037437
                  188      1       0.0037638
                  189      1       0.0037838
                  190      1       0.0038038
                  191      1       0.0038238
                  192      1       0.0038438
                  193      1       0.0038639
                  194      1       0.0038839
                  195      1       0.0039039
                  196      1       0.0039239
                  197      1       0.0039439
                  198      1       0.0039640
                  199      1       0.0039840
                  200      1       0.0040040
                  201      1       0.0040240
                  202      1       0.0040440
                  203      1       0.0040641
                  204      1       0.0040841
                  205      1       0.0041041
                  206      1       0.0041241
                  207      1       0.0041441
                  208      1       0.0041642
                  209      1       0.0041842
                  210      1       0.0042042
                  211      1       0.0042242
                  212      1       0.0042442
                  213      1       0.0042643
                  214      1       0.0042843
                  215      1       0.0043043
                  216      1       0.0043243
                  217      1       0.0043443
                  218      1       0.0043644
                  219      1       0.0043844
                  220      1       0.0044044
                  221      1       0.0044244
                  222      1       0.0044444
                  223      1       0.0044645
                  224      1       0.0044845
                  225      1       0.0045045
                  226      1       0.0045245
                  227      1       0.0045445
                  228      1       0.0045646
                  229      1       0.0045846
                  230      1       0.0046046
                  231      1       0.0046246
                  232      1       0.0046446
                  233      1       0.0046647
                  234      1       0.0046847
                  235      1       0.0047047
                  236      1       0.0047247
                  237      1       0.0047447
                  238      1       0.0047648
                  239      1       0.0047848
                  240      1       0.0048048
                  241      1       0.0048248
                  242      1       0.0048448
                  243      1       0.0048649
                  244      1       0.0048849
                  245      1       0.0049049
                  246      1       0.0049249
                  247      1       0.0049449
                  248      1       0.0049650
                  249      1       0.0049850
                  250      1       0.0050050
                  251      1       0.0050250
                  252      1       0.0050450
                  253      1       0.0050651
                  254      1       0.0050851
                  255      1       0.0051051
                  256      1       0.0051251
                  257      1       0.0051451
                  258      1       0.0051652
                  259      1       0.0051852
                  260      1       0.0052052
                  261      1       0.0052252
                  262      1       0.0052452
                  263      1       0.0052653
                  264      1       0.0052853
                  265      1       0.0053053
                  266      1       0.0053253
                  267      1       0.0053453
                  268      1       0.0053654
                  269      1       0.0053854
                  270      1       0.0054054
                  271      1       0.0054254
                  272      1       0.0054454
                  273      1       0.0054655
                  274      1       0.0054855
                  275      1       0.0055055
                  276      1       0.0055255
                  277      1       0.0055455
                  278      1       0.0055656
                  279      1       0.0055856
                  280      1       0.0056056
                  281      1       0.0056256
                  282      1       0.0056456
                  283      1       0.0056657
                  284      1       0.0056857
                  285      1       0.0057057
                  286      1       0.0057257
                  287      1       0.0057457
                  288      1       0.0057658
                  289      1       0.0057858
                  290      1       0.0058058
                  291      1       0.0058258
                  292      1       0.0058458
                  293      1       0.0058659
                  294      1       0.0058859
                  295      1       0.0059059
                  296      1       0.0059259
                  297      1       0.0059459
                  298      1       0.0059660
                  299      1       0.0059860
                  300      1       0.0060060
                  301      1       0.0060260
                  302      1       0.0060460
                  303      1       0.0060661
                  304      1       0.0060861
                  305      1       0.0061061
                  306      1       0.0061261
                  307      1       0.0061461
                  308      1       0.0061662
                  309      1       0.0061862
                  310      1       0.0062062
                  311      1       0.0062262
                  312      1       0.0062462
                  313      1       0.0062663
                  314      1       0.0062863
                  315      1       0.0063063
                  316      1       0.0063263
                  317      1       0.0063463
                  318      1       0.0063664
                  319      1       0.0063864
                  320      1       0.0064064
                  321      1       0.0064264
                  322      1       0.0064464
                  323      1       0.0064665
                  324      1       0.0064865
                  325      1       0.0065065
                  326      1       0.0065265
                  327      1       0.0065465
                  328      1       0.0065666
                  329      1       0.0065866
                  330      1       0.0066066
                  331      1       0.0066266
                  332      1       0.0066466
                  333      1       0.0066667
                  334      1       0.0066867
                  335      1       0.0067067
                  336      1       0.0067267
                  337      1       0.0067467
                  338      1       0.0067668
                  339      1       0.0067868
                  340      1       0.0068068
                  341      1       0.0068268
                  342      1       0.0068468
                  343      1       0.0068669
                  344      1       0.0068869
                  345      1       0.0069069
                  346      1       0.0069269
                  347      1       0.0069469
                  348      1       0.0069670
                  349      1       0.0069870
                  350      1       0.0070070
                  351      1       0.0070270
                  352      1       0.0070470
                  353      1       0.0070671
                  354      1       0.0070871
                  355      1       0.0071071
                  356      1       0.0071271
                  357      1       0.0071471
                  358      1       0.0071672
                  359      1       0.0071872
                  360      1       0.0072072
                  361      1       0.0072272
                  362      1       0.0072472
                  363      1       0.0072673
                  364      1       0.0072873
                  365      1       0.0073073
                  366      1       0.0073273
                  367      1       0.0073473
                  368      1       0.0073674
                  369      1       0.0073874
                  370      1       0.0074074
                  371      1       0.0074274
                  372      1       0.0074474
                  373      1       0.0074675
                  374      1       0.0074875
                  375      1       0.0075075
                  376      1       0.0075275
                  377      1       0.0075475
                  378      1       0.0075676
                  379      1       0.0075876
                  380      1       0.0076076
                  381      1       0.0076276
                  382      1       0.0076476
                  383      1       0.0076677
                  384      1       0.0076877
                  385      1       0.0077077
                  386      1       0.0077277
                  387      1       0.0077477
                  388      1       0.0077678
                  389      1       0.0077878
                  390      1       0.0078078
                  391      1       0.0078278
                  392      1       0.0078478
                  393      1       0.0078679
                  394      1       0.0078879
                  395      1       0.0079079
                  396      1       0.0079279
                  397      1       0.0079479
                  398      1       0.0079680
                  399      1       0.0079880
                  400      1       0.0080080
                  401      1       0.0080280
                  402      1       0.0080480
                  403      1       0.0080681
                  404      1       0.0080881
                  405      1       0.0081081
                  406      1       0.0081281
                  407      1       0.0081481
                  408      1       0.0081682
                  409      1       0.0081882
                  410      1       0.0082082
                  411      1       0.0082282
                  412      1       0.0082482
                  413      1       0.0082683
                  414      1       0.0082883
                  415      1       0.0083083
                  416      1       0.0083283
                  417      1       0.0083483
                  418      1       0.0083684
                  419      1       0.0083884
                  420      1       0.0084084
                  421      1       0.0084284
                  422      1       0.0084484
                  423      1       0.0084685
                  424      1       0.0084885
                  425      1       0.0085085
                  426      1       0.0085285
                  427      1       0.0085485
                  428      1       0.0085686
                  429      1       0.0085886
                  430      1       0.0086086
                  431      1       0.0086286
                  432      1       0.0086486
                  433      1       0.0086687
                  434      1       0.0086887
                  435      1       0.0087087
                  436      1       0.0087287
                  437      1       0.0087487
                  438      1       0.0087688
                  439      1       0.0087888
                  440      1       0.0088088
                  441      1       0.0088288
                  442      1       0.0088488
                  443      1       0.0088689
                  444      1       0.0088889
                  445      1       0.0089089
                  446      1       0.0089289
                  447      1       0.0089489
                  448      1       0.0089690
                  449      1       0.0089890
                  450      1       0.0090090
                  451      1       0.0090290
                  452      1       0.0090490
                  453      1       0.0090691
                  454      1       0.0090891
                  455      1       0.0091091
                  456      1       0.0091291
                  457      1       0.0091491
                  458      1       0.0091692
                  459      1       0.0091892
                  460      1       0.0092092
                  461      1       0.0092292
                  462      1       0.0092492
                  463      1       0.0092693
                  464      1       0.0092893
                  465      1       0.0093093
                  466      1       0.0093293
                  467      1       0.0093493
                  468      1       0.0093694
                  469      1       0.0093894
                  470      1       0.0094094
                  471      1       0.0094294
                  472      1       0.0094494
                  473      1       0.0094695
                  474      1       0.0094895
                  475      1       0.0095095
                  476      1       0.0095295
                  477      1       0.0095495
                  478      1       0.0095696
                  479      1       0.0095896
                  480      1       0.0096096
                  481      1       0.0096296
                  482      1       0.0096496
                  483      1       0.0096697
                  484      1       0.0096897
                  485      1       0.0097097
                  486      1       0.0097297
                  487      1       0.0097497
                  488      1       0.0097698
                  489      1       0.0097898
                  490      1       0.0098098
                  491      1       0.0098298
                  492      1       0.0098498
                  493      1       0.0098699
                  494      1       0.0098899
                  495      1       0.0099099
                  496      1       0.0099299
                  497      1       0.0099499
                  498      1       0.0099700
                  499      1       0.0099900
                  500      1       0.0100100
                  501      1       0.0100300
                  502      1       0.0100501
                  503      1       0.0100701
                  504      1       0.0100901
                  505      1       0.0101101
                  506      1       0.0101301
                  507      1       0.0101502
                  508      1       0.0101702
                  509      1       0.0101902
                  510      1       0.0102102
                  511      1       0.0102302
                  512      1       0.0102503
                  513      1       0.0102703
                  514      1       0.0102903
                  515      1       0.0103103
                  516      1       0.0103303
                  517      1       0.0103504
                  518      1       0.0103704
                  519      1       0.0103904
                  520      1       0.0104104
                  521      1       0.0104304
                  522      1       0.0104505
                  523      1       0.0104705
                  524      1       0.0104905
                  525      1       0.0105105
                  526      1       0.0105305
                  527      1       0.0105506
                  528      1       0.0105706
                  529      1       0.0105906
                  530      1       0.0106106
                  531      1       0.0106306
                  532      1       0.0106507
                  533      1       0.0106707
                  534      1       0.0106907
                  535      1       0.0107107
                  536      1       0.0107307
                  537      1       0.0107508
                  538      1       0.0107708
                  539      1       0.0107908
                  540      1       0.0108108
                  541      1       0.0108308
                  542      1       0.0108509
                  543      1       0.0108709
                  544      1       0.0108909
                  545      1       0.0109109
                  546      1       0.0109309
                  547      1       0.0109510
                  548      1       0.0109710
                  549      1       0.0109910
                  550      1       0.0110110
                  551      1       0.0110310
                  552      1       0.0110511
                  553      1       0.0110711
                  554      1       0.0110911
                  555      1       0.0111111
                  556      1       0.0111311
                  557      1       0.0111512
                  558      1       0.0111712
                  559      1       0.0111912
                  560      1       0.0112112
                  561      1       0.0112312
                  562      1       0.0112513
                  563      1       0.0112713
                  564      1       0.0112913
                  565      1       0.0113113
                  566      1       0.0113313
                  567      1       0.0113514
                  568      1       0.0113714
                  569      1       0.0113914
                  570      1       0.0114114
                  571      1       0.0114314
                  572      1       0.0114515
                  573      1       0.0114715
                  574      1       0.0114915
                  575      1       0.0115115
                  576      1       0.0115315
                  577      1       0.0115516
                  578      1       0.0115716
                  579      1       0.0115916
                  580      1       0.0116116
                  581      1       0.0116316
                  582      1       0.0116517
                  583      1       0.0116717
                  584      1       0.0116917
                  585      1       0.0117117
                  586      1       0.0117317
                  587      1       0.0117518
                  588      1       0.0117718
                  589      1       0.0117918
                  590      1       0.0118118
                  591      1       0.0118318
                  592      1       0.0118519
                  593      1       0.0118719
                  594      1       0.0118919
                  595      1       0.0119119
                  596      1       0.0119319
                  597      1       0.0119520
                  598      1       0.0119720
                  599      1       0.0119920
                  600      1       0.0120120
                  601      1       0.0120320
                  602      1       0.0120521
                  603      1       0.0120721
                  604      1       0.0120921
                  605      1       0.0121121
                  606      1       0.0121321
                  607      1       0.0121522
                  608      1       0.0121722
                  609      1       0.0121922
                  610      1       0.0122122
                  611      1       0.0122322
                  612      1       0.0122523
                  613      1       0.0122723
                  614      1       0.0122923
                  615      1       0.0123123
                  616      1       0.0123323
                  617      1       0.0123524
                  618      1       0.0123724
                  619      1       0.0123924
                  620      1       0.0124124
                  621      1       0.0124324
                  622      1       0.0124525
                  623      1       0.0124725
                  624      1       0.0124925
                  625      1       0.0125125
                  626      1       0.0125325
                  627      1       0.0125526
                  628      1       0.0125726
                  629      1       0.0125926
                  630      1       0.0126126
                  631      1       0.0126326
                  632      1       0.0126527
                  633      1       0.0126727
                  634      1       0.0126927
                  635      1       0.0127127
                  636      1       0.0127327
                  637      1       0.0127528
                  638      1       0.0127728
                  639      1       0.0127928
                  640      1       0.0128128
                  641      1       0.0128328
                  642      1       0.0128529
                  643      1       0.0128729
                  644      1       0.0128929
                  645      1       0.0129129
                  646      1       0.0129329
                  647      1       0.0129530
                  648      1       0.0129730
                  649      1       0.0129930
                  650      1       0.0130130
                  651      1       0.0130330
                  652      1       0.0130531
                  653      1       0.0130731
                  654      1       0.0130931
                  655      1       0.0131131
                  656      1       0.0131331
                  657      1       0.0131532
                  658      1       0.0131732
                  659      1       0.0131932
                  660      1       0.0132132
                  661      1       0.0132332
                  662      1       0.0132533
                  663      1       0.0132733
                  664      1       0.0132933
                  665      1       0.0133133
                  666      1       0.0133333
                  667      1       0.0133534
                  668      1       0.0133734
                  669      1       0.0133934
                  670      1       0.0134134
                  671      1       0.0134334
                  672      1       0.0134535
                  673      1       0.0134735
                  674      1       0.0134935
                  675      1       0.0135135
                  676      1       0.0135335
                  677      1       0.0135536
                  678      1       0.0135736
                  679      1       0.0135936
                  680      1       0.0136136
                  681      1       0.0136336
                  682      1       0.0136537
                  683      1       0.0136737
                  684      1       0.0136937
                  685      1       0.0137137
                  686      1       0.0137337
                  687      1       0.0137538
                  688      1       0.0137738
                  689      1       0.0137938
                  690      1       0.0138138
                  691      1       0.0138338
                  692      1       0.0138539
                  693      1       0.0138739
                  694      1       0.0138939
                  695      1       0.0139139
                  696      1       0.0139339
                  697      1       0.0139540
                  698      1       0.0139740
                  699      1       0.0139940
                  700      1       0.0140140
                  701      1       0.0140340
                  702      1       0.0140541
                  703      1       0.0140741
                  704      1       0.0140941
                  705      1       0.0141141
                  706      1       0.0141341
                  707      1       0.0141542
                  708      1       0.0141742
                  709      1       0.0141942
                  710      1       0.0142142
                  711      1       0.0142342
                  712      1       0.0142543
                  713      1       0.0142743
                  714      1       0.0142943
                  715      1       0.0143143
                  716      1       0.0143343
                  717      1       0.0143544
                  718      1       0.0143744
                  719      1       0.0143944
                  720      1       0.0144144
                  721      1       0.0144344
                  722      1       0.0144545
                  723      1       0.0144745
                  724      1       0.0144945
                  725      1       0.0145145
                  726      1       0.0145345
                  727      1       0.0145546
                  728      1       0.0145746
                  729      1       0.0145946
                  730      1       0.0146146
                  731      1       0.0146346
                  732      1       0.0146547
                  733      1       0.0146747
                  734      1       0.0146947
                  735      1       0.0147147
                  736      1       0.0147347
                  737      1       0.0147548
                  738      1       0.0147748
                  739      1       0.0147948
                  740      1       0.0148148
                  741      1       0.0148348
                  742      1       0.0148549
                  743      1       0.0148749
                  744      1       0.0148949
                  745      1       0.0149149
                  746      1       0.0149349
                  747      1       0.0149550
                  748      1       0.0149750
                  749      1       0.0149950
                  750      1       0.0150150
                  751      1       0.0150350
                  752      1       0.0150551
                  753      1       0.0150751
                  754      1       0.0150951
                  755      1       0.0151151
                  756      1       0.0151351
                  757      1       0.0151552
                  758      1       0.0151752
                  759      1       0.0151952
                  760      1       0.0152152
                  761      1       0.0152352
                  762      1       0.0152553
                  763      1       0.0152753
                  764      1       0.0152953
                  765      1       0.0153153
                  766      1       0.0153353
                  767      1       0.0153554
                  768      1       0.0153754
                  769      1       0.0153954
                  770      1       0.0154154
                  771      1       0.0154354
                  772      1       0.0154555
                  773      1       0.0154755
                  774      1       0.0154955
                  775      1       0.0155155
                  776      1       0.0155355
                  777      1       0.0155556
                  778      1       0.0155756
                  779      1       0.0155956
                  780      1       0.0156156
                  781      1       0.0156356
                  782      1       0.0156557
                  783      1       0.0156757
                  784      1       0.0156957
                  785      1       0.0157157
                  786      1       0.0157357
                  787      1       0.0157558
                  788      1       0.0157758
                  789      1       0.0157958
                  790      1       0.0158158
                  791      1       0.0158358
                  792      1       0.0158559
                  793      1       0.0158759
                  794      1       0.0158959
                  795      1       0.0159159
                  796      1       0.0159359
                  797      1       0.0159560
                  798      1       0.0159760
                  799      1       0.0159960
                  800      1       0.0160160
                  801      1       0.0160360
                  802      1       0.0160561
                  803      1       0.0160761
                  804      1       0.0160961
                  805      1       0.0161161
                  806      1       0.0161361
                  807      1       0.0161562
                  808      1       0.0161762
                  809      1       0.0161962
                  810      1       0.0162162
                  811      1       0.0162362
                  812      1       0.0162563
                  813      1       0.0162763
                  814      1       0.0162963
                  815      1       0.0163163
                  816      1       0.0163363
                  817      1       0.0163564
                  818      1       0.0163764
                  819      1       0.0163964
                  820      1       0.0164164
                  821      1       0.0164364
                  822      1       0.0164565
                  823      1       0.0164765
                  824      1       0.0164965
                  825      1       0.0165165
                  826      1       0.0165365
                  827      1       0.0165566
                  828      1       0.0165766
                  829      1       0.0165966
                  830      1       0.0166166
                  831      1       0.0166366
                  832      1       0.0166567
                  833      1       0.0166767
                  834      1       0.0166967
                  835      1       0.0167167
                  836      1       0.0167367
                  837      1       0.0167568
                  838      1       0.0167768
                  839      1       0.0167968
                  840      1       0.0168168
                  841      1       0.0168368
                  842      1       0.0168569
                  843      1       0.0168769
                  844      1       0.0168969
                  845      1       0.0169169
                  846      1       0.0169369
                  847      1       0.0169570
                  848      1       0.0169770
                  849      1       0.0169970
                  850      1       0.0170170
                  851      1       0.0170370
                  852      1       0.0170571
                  853      1       0.0170771
                  854      1       0.0170971
                  855      1       0.0171171
                  856      1       0.0171371
                  857      1       0.0171572
                  858      1       0.0171772
                  859      1       0.0171972
                  860      1       0.0172172
                  861      1       0.0172372
                  862      1       0.0172573
                  863      1       0.0172773
                  864      1       0.0172973
                  865      1       0.0173173
                  866      1       0.0173373
                  867      1       0.0173574
                  868      1       0.0173774
                  869      1       0.0173974
                  870      1       0.0174174
                  871      1       0.0174374
                  872      1       0.0174575
                  873      1       0.0174775
                  874      1       0.0174975
                  875      1       0.0175175
                  876      1       0.0175375
                  877      1       0.0175576
                  878      1       0.0175776
                  879      1       0.0175976
                  880      1       0.0176176
                  881      1       0.0176376
                  882      1       0.0176577
                  883      1       0.0176777
                  884      1       0.0176977
                  885      1       0.0177177
                  886      1       0.0177377
                  887      1       0.0177578
                  888      1       0.0177778
                  889      1       0.0177978
                  890      1       0.0178178
                  891      1       0.0178378
                  892      1       0.0178579
                  893      1       0.0178779
                  894      1       0.0178979
                  895      1       0.0179179
                  896      1       0.0179379
                  897      1       0.0179580
                  898      1       0.0179780
                  899      1       0.0179980
                  900      1       0.0180180
                  901      1       0.0180380
                  902      1       0.0180581
                  903      1       0.0180781
                  904      1       0.0180981
                  905      1       0.0181181
                  906      1       0.0181381
                  907      1       0.0181582
                  908      1       0.0181782
                  909      1       0.0181982
                  910      1       0.0182182
                  911      1       0.0182382
                  912      1       0.0182583
                  913      1       0.0182783
                  914      1       0.0182983
                  915      1       0.0183183
                  916      1       0.0183383
                  917      1       0.0183584
                  918      1       0.0183784
                  919      1       0.0183984
                  920      1       0.0184184
                  921      1       0.0184384
                  922      1       0.0184585
                  923      1       0.0184785
                  924      1       0.0184985
                  925      1       0.0185185
                  926      1       0.0185385
                  927      1       0.0185586
                  928      1       0.0185786
                  929      1       0.0185986
                  930      1       0.0186186
                  931      1       0.0186386
                  932      1       0.0186587
                  933      1       0.0186787
                  934      1       0.0186987
                  935      1       0.0187187
                  936      1       0.0187387
                  937      1       0.0187588
                  938      1       0.0187788
                  939      1       0.0187988
                  940      1       0.0188188
                  941      1       0.0188388
                  942      1       0.0188589
                  943      1       0.0188789
                  944      1       0.0188989
                  945      1       0.0189189
                  946      1       0.0189389
                  947      1       0.0189590
                  948      1       0.0189790
                  949      1       0.0189990
                  950      1       0.0190190
                  951      1       0.0190390
                  952      1       0.0190591
                  953      1       0.0190791
                  954      1       0.0190991
                  955      1       0.0191191
                  956      1       0.0191391
                  957      1       0.0191592
                  958      1       0.0191792
                  959      1       0.0191992
                  960      1       0.0192192
                  961      1       0.0192392
                  962      1       0.0192593
                  963      1       0.0192793
                  964      1       0.0192993
                  965      1       0.0193193
                  966      1       0.0193393
                  967      1       0.0193594
                  968      1       0.0193794
                  969      1       0.0193994
                  970      1       0.0194194
                  971      1       0.0194394
                  972      1       0.0194595
                  973      1       0.0194795
                  974      1       0.0194995
                  975      1       0.0195195
                  976      1       0.0195395
                  977      1       0.0195596
                  978      1       0.0195796
                  979      1       0.0195996
                  980      1       0.0196196
                  981      1       0.0196396
                  982      1       0.0196597
                  983      1       0.0196797
                  984      1       0.0196997
                  985      1       0.0197197
                  986      1       0.0197397
                  987      1       0.0197598
                  988      1       0.0197798
                  989      1       0.0197998
                  990      1       0.0198198
                  991      1       0.0198398
                  992      1       0.0198599
                  993      1       0.0198799
                  994      1       0.0198999
                  995      1       0.0199199
                  996      1       0.0199399
                  997      1       0.0199600
                  998      1       0.0199800
                  999      1       0.0200000
                 1000      2       0.0210000
                 1001      2       0.0230000
                 1002      2       0.0270000
                 1003      2       0.0350000
                 1004      2       0.0430000
                 1005      2       0.0470000
                 1006      2       0.0490000
                 1007      2       0.0500000
     Insulated Backing

   2 OPEN
     Passive Vent to Atmosphere

   3 MIRROR
     Symmetry Plane

   4 INTERPOLATED

   5 PERIODIC

   6 HVAC

   7 MASSLESS TRACER

   8 DROPLET

   9 VEGETATION

  10 EVACUATION_OUTFLOW
     Normal Velocity (m/s)         0.000

  11 MASSLESS TARGET

  12 PERIODIC WIND


 Device Coordinates

     1 Coords:     0.00     0.00    -0.10, Make: null, ID: null, Quantity: SURFACE DENSITY
     2 Coords:     0.00     0.00    -0.10, Make: null, ID: null, Quantity: WALL TEMPERATURE
     3 Coords:     0.00     0.00     0.10, Make: null, ID: null, Quantity: HRR
     4 Coords:     0.00     0.00    -0.10, Make: null, ID: null, Quantity: WALL THICKNESS


 Radiation Model Information

   Number of control angles  104
   Time step increment         3
   Angle increment             5
   Theta band N_phi   Solid angle
     1:        4  0.12
     2:       12  0.11
     3:       16  0.13
     4:       20  0.12
     5:       20  0.12
     6:       16  0.13
     7:       12  0.11
     8:        4  0.12
   Using gray gas absorption.
   Mean beam length  0.100 m
 
 

 Run Time Diagnostics

       Time Step       1   July 26, 2018  11:11:07
       Step Size:    0.500E+00 s, Total Time:       0.50 s
       Pressure Iterations:      1
       Maximum Velocity Error:  0.00E+00 on Mesh   1 at (   0   0   0)
       Maximum Pressure Error:  0.47E-07 on Mesh   1 at (   1   5   8)
       ---------------------------------------------------------------
       Max CFL number:  0.14E+00 at (   5,   3,   4)
       Max divergence:  0.18E-04 at (   4,   3,   1)
       Min divergence: -0.72E-06 at (   5,   2,   2)
       Max VN number:   0.14E+00 at (   2,   2,   5)
 
       Time Step       2   July 26, 2018  11:11:07
       Step Size:    0.500E+00 s, Total Time:       1.00 s
       Pressure Iterations:      1
       Maximum Velocity Error:  0.00E+00 on Mesh   1 at (   0   0   0)
       Maximum Pressure Error:  0.11E-04 on Mesh   1 at (   4   3   1)
       ---------------------------------------------------------------
       Max CFL number:  0.13E+00 at (   5,   3,   4)
       Max divergence:  0.36E-02 at (   3,   4,   1)
       Min divergence: -0.70E-06 at (   5,   2,   2)
       Max VN number:   0.13E+00 at (   2,   2,   5)
 
       Time Step       3   July 26, 2018  11:11:07
       Step Size:    0.500E+00 s, Total Time:       1.50 s
       Pressure Iterations:      1
       Maximum Velocity Error:  0.17E-17 on Mesh   1 at (   4   3   0)
       Maximum Pressure Error:  0.43E+00 on Mesh   1 at (   4   3   1)
       ---------------------------------------------------------------
       Max CFL number:  0.12E+00 at (   5,   2,   4)
       Max divergence:  0.79E-01 at (   4,   4,   1)
       Min divergence: -0.67E-06 at (   5,   2,   2)
       Max VN number:   0.13E+00 at (   5,   2,   4)
 
       Time Step       4   July 26, 2018  11:11:07
       Step Size:    0.500E+00 s, Total Time:       2.00 s
       Pressure Iterations:      1
       Maximum Velocity Error:  0.35E-17 on Mesh   1 at (   4   3   0)
       Maximum Pressure Error:  0.56E+01 on Mesh   1 at (   3   3   1)
       ---------------------------------------------------------------
       Max CFL number:  0.20E+00 at (   3,   4,   1)
       Max divergence:  0.97E-01 at (   4,   4,   1)
       Min divergence: -0.35E-06 at (   1,   1,   6)
       Max VN number:   0.12E+00 at (   5,   2,   4)
 
       Time Step       5   July 26, 2018  11:11:07
       Step Size:    0.230E+00 s, Total Time:       2.23 s
       Pressure Iterations:      1
       Maximum Velocity Error:  0.17E-17 on Mesh   1 at (   3   3   0)
       Maximum Pressure Error:  0.58E+01 on Mesh   1 at (   4   4   1)
       ---------------------------------------------------------------
       Max CFL number:  0.61E+00 at (   3,   4,   1)
       Max divergence:  0.76E-01 at (   4,   4,   1)
       Min divergence: -0.34E-06 at (   1,   1,   6)
       Max VN number:   0.14E+00 at (   3,   4,   2)
 
       Time Step       6   July 26, 2018  11:11:07
       Step Size:    0.173E+00 s, Total Time:       2.40 s
       Pressure Iterations:      1
       Maximum Velocity Error:  0.17E-17 on Mesh   1 at (   3   4   0)
       Maximum Pressure Error:  0.42E+01 on Mesh   1 at (   3   4   1)
       ---------------------------------------------------------------
       Max CFL number:  0.78E+00 at (   3,   4,   2)
       Max divergence:  0.72E-01 at (   4,   4,   1)
       Min divergence: -0.33E-06 at (   1,   1,   6)
       Max VN number:   0.22E+00 at (   3,   4,   2)
 
       Time Step       7   July 26, 2018  11:11:07
       Step Size:    0.137E+00 s, Total Time:       2.54 s
       Pressure Iterations:      1
       Maximum Velocity Error:  0.17E-17 on Mesh   1 at (   3   4   0)
       Maximum Pressure Error:  0.41E+01 on Mesh   1 at (   3   3   1)
       ---------------------------------------------------------------
       Max CFL number:  0.83E+00 at (   3,   4,   1)
       Max divergence:  0.10E+00 at (   4,   3,   1)
       Min divergence: -0.28E-01 at (   3,   4,   2)
       Max VN number:   0.27E+00 at (   3,   4,   2)
 
       Time Step       8   July 26, 2018  11:11:07
       Step Size:    0.137E+00 s, Total Time:       2.68 s
       Pressure Iterations:      1
       Maximum Velocity Error:  0.17E-17 on Mesh   1 at (   4   3   0)
       Maximum Pressure Error:  0.72E+01 on Mesh   1 at (   3   4   1)
       ---------------------------------------------------------------
       Max CFL number:  0.10E+01 at (   3,   4,   1)
       Max divergence:  0.92E-01 at (   3,   3,   2)
       Min divergence: -0.36E-01 at (   3,   4,   2)
       Max VN number:   0.38E+00 at (   3,   4,   2)
 
       Time Step       9   July 26, 2018  11:11:07
       Step Size:    0.112E+00 s, Total Time:       2.79 s
       Pressure Iterations:      1
       Maximum Velocity Error:  0.35E-17 on Mesh   1 at (   4   3   0)
       Maximum Pressure Error:  0.71E+01 on Mesh   1 at (   3   3   1)
       ---------------------------------------------------------------
       Max CFL number:  0.88E+00 at (   3,   4,   1)
       Max divergence:  0.92E-01 at (   3,   4,   1)
       Min divergence: -0.68E-01 at (   3,   4,   2)
       Max VN number:   0.41E+00 at (   3,   4,   2)
 
       Time Step      10   July 26, 2018  11:11:08
       Step Size:    0.943E-01 s, Total Time:       2.88 s
       Pressure Iterations:      1
       Maximum Velocity Error:  0.00E+00 on Mesh   1 at (   4   3   0)
       Maximum Pressure Error:  0.62E+01 on Mesh   1 at (   4   4   1)
       ---------------------------------------------------------------
       Max CFL number:  0.87E+00 at (   3,   4,   2)
       Max divergence:  0.15E+00 at (   3,   4,   1)
       Min divergence: -0.12E+00 at (   4,   3,   2)
       Max VN number:   0.39E+00 at (   3,   4,   2)
 
       Time Step      20   July 26, 2018  11:11:08
       Step Size:    0.647E-01 s, Total Time:       3.65 s
       Pressure Iterations:      1
       Maximum Velocity Error:  0.17E-17 on Mesh   1 at (   3   3   0)
       Maximum Pressure Error:  0.68E+00 on Mesh   1 at (   3   4   1)
       ---------------------------------------------------------------
       Max CFL number:  0.88E+00 at (   3,   3,   7)
       Max divergence:  0.14E+00 at (   3,   4,   1)
       Min divergence: -0.19E-01 at (   4,   3,   7)
       Max VN number:   0.30E+00 at (   3,   3,   6)
       Total Heat Release Rate:              0.003 kW
       Radiation Loss to Boundaries:         0.002 kW
 
       Time Step      30   July 26, 2018  11:11:09
       Step Size:    0.862E-01 s, Total Time:       4.38 s
       Pressure Iterations:      1
       Maximum Velocity Error:  0.52E-17 on Mesh   1 at (   4   3   0)
       Maximum Pressure Error:  0.26E+01 on Mesh   1 at (   4   4   1)
       ---------------------------------------------------------------
       Max CFL number:  0.95E+00 at (   4,   4,   5)
       Max divergence:  0.25E+00 at (   4,   4,   1)
       Min divergence: -0.85E-01 at (   4,   4,   5)
       Max VN number:   0.34E+00 at (   4,   4,   4)
       Total Heat Release Rate:              0.014 kW
       Radiation Loss to Boundaries:         0.002 kW
 
       Time Step      40   July 26, 2018  11:11:10
       Step Size:    0.704E-01 s, Total Time:       5.08 s
       Pressure Iterations:      1
       Maximum Velocity Error:  0.17E-17 on Mesh   1 at (   4   3   0)
       Maximum Pressure Error:  0.47E+01 on Mesh   1 at (   3   4   1)
       ---------------------------------------------------------------
       Max CFL number:  0.80E+00 at (   3,   4,   8)
       Max divergence:  0.34E+00 at (   3,   3,   1)
       Min divergence: -0.17E+00 at (   3,   4,   2)
       Max VN number:   0.27E+00 at (   3,   4,   2)
       Total Heat Release Rate:              0.047 kW
       Radiation Loss to Boundaries:        -0.009 kW
 
       Time Step      50   July 26, 2018  11:11:11
       Step Size:    0.655E-01 s, Total Time:       5.78 s
       Pressure Iterations:      1
       Maximum Velocity Error:  0.52E-17 on Mesh   1 at (   3   3   0)
       Maximum Pressure Error:  0.24E+01 on Mesh   1 at (   4   3   1)
       ---------------------------------------------------------------
       Max CFL number:  0.96E+00 at (   3,   4,   8)
       Max divergence:  0.49E+00 at (   4,   3,   1)
       Min divergence: -0.61E-01 at (   3,   4,   8)
       Max VN number:   0.33E+00 at (   3,   4,   8)
       Total Heat Release Rate:              0.119 kW
       Radiation Loss to Boundaries:        -0.038 kW
 
       Time Step      60   July 26, 2018  11:11:11
       Step Size:    0.612E-01 s, Total Time:       6.44 s
       Pressure Iterations:      1
       Maximum Velocity Error:  0.17E-16 on Mesh   1 at (   3   4   0)
       Maximum Pressure Error:  0.61E+01 on Mesh   1 at (   3   4   1)
       ---------------------------------------------------------------
       Max CFL number:  0.96E+00 at (   4,   4,   6)
       Max divergence:  0.98E+00 at (   4,   4,   1)
       Min divergence: -0.19E+00 at (   4,   4,   6)
       Max VN number:   0.33E+00 at (   4,   4,   5)
       Total Heat Release Rate:              0.246 kW
       Radiation Loss to Boundaries:        -0.061 kW
 
       Time Step      70   July 26, 2018  11:11:12
       Step Size:    0.542E-01 s, Total Time:       6.99 s
       Pressure Iterations:      1
       Maximum Velocity Error:  0.16E-16 on Mesh   1 at (   3   4   0)
       Maximum Pressure Error:  0.50E+01 on Mesh   1 at (   4   4   1)
       ---------------------------------------------------------------
       Max CFL number:  0.84E+00 at (   4,   3,   4)
       Max divergence:  0.16E+01 at (   4,   3,   1)
       Min divergence: -0.26E+00 at (   4,   3,   4)
       Max VN number:   0.31E+00 at (   4,   3,   3)
       Total Heat Release Rate:              0.398 kW
       Radiation Loss to Boundaries:        -0.088 kW
 
       Time Step      80   July 26, 2018  11:11:13
       Step Size:    0.467E-01 s, Total Time:       7.47 s
       Pressure Iterations:      1
       Maximum Velocity Error:  0.10E-16 on Mesh   1 at (   3   4   0)
       Maximum Pressure Error:  0.29E+01 on Mesh   1 at (   4   4   1)
       ---------------------------------------------------------------
       Max CFL number:  0.85E+00 at (   4,   3,   8)
       Max divergence:  0.21E+01 at (   4,   3,   1)
       Min divergence: -0.36E+00 at (   3,   3,   3)
       Max VN number:   0.27E+00 at (   4,   3,   2)
       Total Heat Release Rate:              0.581 kW
       Radiation Loss to Boundaries:        -0.157 kW
 
       Time Step      90   July 26, 2018  11:11:14
       Step Size:    0.420E-01 s, Total Time:       7.91 s
       Pressure Iterations:      1
       Maximum Velocity Error:  0.12E-16 on Mesh   1 at (   3   4   0)
       Maximum Pressure Error:  0.18E+01 on Mesh   1 at (   3   4   6)
       ---------------------------------------------------------------
       Max CFL number:  0.94E+00 at (   4,   3,   8)
       Max divergence:  0.26E+01 at (   4,   3,   1)
       Min divergence: -0.33E+00 at (   4,   3,   2)
       Max VN number:   0.30E+00 at (   4,   3,   8)
       Total Heat Release Rate:              0.779 kW
       Radiation Loss to Boundaries:        -0.226 kW
 
       Time Step     100   July 26, 2018  11:11:14
       Step Size:    0.373E-01 s, Total Time:       8.32 s
       Pressure Iterations:      1
       Maximum Velocity Error:  0.10E-16 on Mesh   1 at (   3   4   0)
       Maximum Pressure Error:  0.19E+01 on Mesh   1 at (   4   3   1)
       ---------------------------------------------------------------
       Max CFL number:  0.90E+00 at (   4,   3,   8)
       Max divergence:  0.34E+01 at (   4,   3,   1)
       Min divergence: -0.40E+00 at (   4,   3,   2)
       Max VN number:   0.28E+00 at (   4,   3,   7)
       Total Heat Release Rate:              1.010 kW
       Radiation Loss to Boundaries:        -0.295 kW
 
       Time Step     200   July 26, 2018  11:11:22
       Step Size:    0.242E-01 s, Total Time:      11.25 s
       Pressure Iterations:      1
       Maximum Velocity Error:  0.28E-16 on Mesh   1 at (   3   3   0)
       Maximum Pressure Error:  0.18E+02 on Mesh   1 at (   3   3   7)
       ---------------------------------------------------------------
       Max CFL number:  0.96E+00 at (   3,   3,   5)
       Max divergence:  0.83E+01 at (   4,   3,   1)
       Min divergence: -0.21E+01 at (   3,   3,   4)
       Max VN number:   0.38E+00 at (   3,   3,   5)
       Total Heat Release Rate:              2.422 kW
       Radiation Loss to Boundaries:        -0.739 kW
 
       Time Step     300   July 26, 2018  11:11:29
       Step Size:    0.209E-01 s, Total Time:      13.46 s
       Pressure Iterations:      1
       Maximum Velocity Error:  0.45E-16 on Mesh   1 at (   3   3   0)
       Maximum Pressure Error:  0.17E+02 on Mesh   1 at (   4   5   1)
       ---------------------------------------------------------------
       Max CFL number:  0.95E+00 at (   4,   4,   8)
       Max divergence:  0.77E+01 at (   3,   4,   1)
       Min divergence: -0.27E+01 at (   4,   4,   5)
       Max VN number:   0.34E+00 at (   4,   4,   4)
       Total Heat Release Rate:              3.329 kW
       Radiation Loss to Boundaries:        -0.968 kW
 
       Time Step     400   July 26, 2018  11:11:37
       Step Size:    0.160E-01 s, Total Time:      15.29 s
       Pressure Iterations:      1
       Maximum Velocity Error:  0.35E-16 on Mesh   1 at (   4   3   0)
       Maximum Pressure Error:  0.18E+03 on Mesh   1 at (   4   4   2)
       ---------------------------------------------------------------
       Max CFL number:  0.71E+00 at (   5,   3,   8)
       Max divergence:  0.11E+02 at (   4,   4,   1)
       Min divergence: -0.39E+01 at (   4,   4,   3)
       Max VN number:   0.27E+00 at (   4,   4,   2)
       Total Heat Release Rate:              3.752 kW
       Radiation Loss to Boundaries:        -1.020 kW
 
       Time Step     500   July 26, 2018  11:11:45
       Step Size:    0.169E-01 s, Total Time:      17.14 s
       Pressure Iterations:      1
       Maximum Velocity Error:  0.83E-16 on Mesh   1 at (   4   3   0)
       Maximum Pressure Error:  0.10E+03 on Mesh   1 at (   5   3   1)
       ---------------------------------------------------------------
       Max CFL number:  0.81E+00 at (   6,   4,   6)
       Max divergence:  0.74E+01 at (   4,   4,   1)
       Min divergence: -0.23E+01 at (   5,   3,   2)
       Max VN number:   0.20E+00 at (   6,   5,   7)
       Total Heat Release Rate:              3.641 kW
       Radiation Loss to Boundaries:        -1.034 kW
 
       Time Step     600   July 26, 2018  11:11:52
       Step Size:    0.189E-01 s, Total Time:      19.30 s
       Pressure Iterations:      1
       Maximum Velocity Error:  0.17E-15 on Mesh   1 at (   4   3   0)
       Maximum Pressure Error:  0.12E+03 on Mesh   1 at (   4   1   5)
       ---------------------------------------------------------------
       Max CFL number:  0.88E+00 at (   4,   3,   5)
       Max divergence:  0.12E+02 at (   4,   3,   1)
       Min divergence: -0.12E+01 at (   5,   4,   3)
       Max VN number:   0.31E+00 at (   3,   2,   8)
       Total Heat Release Rate:              4.001 kW
       Radiation Loss to Boundaries:        -1.188 kW
 
       Time Step     700   July 26, 2018  11:12:00
       Step Size:    0.243E-01 s, Total Time:      21.57 s
       Pressure Iterations:      1
       Maximum Velocity Error:  0.13E-15 on Mesh   1 at (   3   4   0)
       Maximum Pressure Error:  0.97E+02 on Mesh   1 at (   4   3   1)
       ---------------------------------------------------------------
       Max CFL number:  0.90E+00 at (   3,   2,   7)
       Max divergence:  0.72E+01 at (   4,   3,   1)
       Min divergence: -0.13E+01 at (   3,   2,   7)
       Max VN number:   0.34E+00 at (   3,   2,   7)
       Total Heat Release Rate:              3.650 kW
       Radiation Loss to Boundaries:        -1.119 kW
 
       Time Step     800   July 26, 2018  11:12:07
       Step Size:    0.208E-01 s, Total Time:      23.60 s
       Pressure Iterations:      1
       Maximum Velocity Error:  0.11E-15 on Mesh   1 at (   3   4   0)
       Maximum Pressure Error:  0.11E+03 on Mesh   1 at (   4   3   1)
       ---------------------------------------------------------------
       Max CFL number:  0.87E+00 at (   3,   4,   3)
       Max divergence:  0.11E+02 at (   3,   3,   1)
       Min divergence: -0.30E+01 at (   2,   3,   4)
       Max VN number:   0.35E+00 at (   2,   3,   3)
       Total Heat Release Rate:              4.816 kW
       Radiation Loss to Boundaries:        -1.356 kW
 
       Time Step     900   July 26, 2018  11:12:14
       Step Size:    0.189E-01 s, Total Time:      25.38 s
       Pressure Iterations:      1
       Maximum Velocity Error:  0.10E-15 on Mesh   1 at (   3   4   0)
       Maximum Pressure Error:  0.15E+03 on Mesh   1 at (   4   3   1)
       ---------------------------------------------------------------
       Max CFL number:  0.80E+00 at (   4,   6,   8)
       Max divergence:  0.81E+01 at (   3,   3,   1)
       Min divergence: -0.19E+01 at (   4,   4,   3)
       Max VN number:   0.22E+00 at (   4,   6,   8)
       Total Heat Release Rate:              4.227 kW
       Radiation Loss to Boundaries:        -1.178 kW
 
       Time Step    1000   July 26, 2018  11:12:22
       Step Size:    0.206E-01 s, Total Time:      27.36 s
       Pressure Iterations:      1
       Maximum Velocity Error:  0.16E-15 on Mesh   1 at (   4   4   0)
       Maximum Pressure Error:  0.87E+02 on Mesh   1 at (   2   4   3)
       ---------------------------------------------------------------
       Max CFL number:  0.89E+00 at (   3,   4,   5)
       Max divergence:  0.12E+02 at (   3,   4,   1)
       Min divergence: -0.21E+01 at (   3,   4,   5)
       Max VN number:   0.36E+00 at (   3,   4,   5)
       Total Heat Release Rate:              4.908 kW
       Radiation Loss to Boundaries:        -1.338 kW
 
       Time Step    1100   July 26, 2018  11:12:29
       Step Size:    0.182E-01 s, Total Time:      29.47 s
       Pressure Iterations:      1
       Maximum Velocity Error:  0.90E-16 on Mesh   1 at (   4   4   0)
       Maximum Pressure Error:  0.81E+02 on Mesh   1 at (   5   3   4)
       ---------------------------------------------------------------
       Max CFL number:  0.94E+00 at (   5,   3,   6)
       Max divergence:  0.63E+01 at (   3,   3,   1)
       Min divergence: -0.16E+01 at (   5,   3,   6)
       Max VN number:   0.31E+00 at (   5,   3,   5)
       Total Heat Release Rate:              3.799 kW
       Radiation Loss to Boundaries:        -1.145 kW
 
       Time Step    1200   July 26, 2018  11:12:37
       Step Size:    0.196E-01 s, Total Time:      31.57 s
[...]
       Total Heat Release Rate:              0.017 kW
       Radiation Loss to Boundaries:         0.015 kW
 
       Time Step   34400   July 26, 2018  11:42:41
       Step Size:    0.571E-01 s, Total Time:    1033.55 s
       Pressure Iterations:      1
       Maximum Velocity Error:  0.15E-14 on Mesh   1 at (   4   3   0)
       Maximum Pressure Error:  0.68E+01 on Mesh   1 at (   4   3   1)
       ---------------------------------------------------------------
       Max CFL number:  0.87E+00 at (   3,   3,   7)
       Max divergence:  0.61E+00 at (   3,   3,   1)
       Min divergence: -0.25E+00 at (   3,   4,   2)
       Max VN number:   0.28E+00 at (   3,   4,   3)
       Total Heat Release Rate:              0.016 kW
       Radiation Loss to Boundaries:         0.013 kW
 
       Time Step   34500   July 26, 2018  11:42:42
       Step Size:    0.630E-01 s, Total Time:    1039.53 s
       Pressure Iterations:      1
       Maximum Velocity Error:  0.15E-14 on Mesh   1 at (   4   3   0)
       Maximum Pressure Error:  0.61E+01 on Mesh   1 at (   3   4   1)
       ---------------------------------------------------------------
       Max CFL number:  0.83E+00 at (   4,   4,   8)
       Max divergence:  0.57E+00 at (   4,   4,   1)
       Min divergence: -0.17E+00 at (   4,   3,   2)
       Max VN number:   0.33E+00 at (   4,   3,   3)
       Total Heat Release Rate:              0.015 kW
       Radiation Loss to Boundaries:         0.015 kW
 
       Time Step   34600   July 26, 2018  11:42:44
       Step Size:    0.543E-01 s, Total Time:    1045.28 s
       Pressure Iterations:      1
       Maximum Velocity Error:  0.15E-14 on Mesh   1 at (   4   3   0)
       Maximum Pressure Error:  0.16E+02 on Mesh   1 at (   4   4   1)
       ---------------------------------------------------------------
       Max CFL number:  0.98E+00 at (   4,   4,   4)
       Max divergence:  0.64E+00 at (   3,   4,   1)
       Min divergence: -0.30E+00 at (   4,   4,   4)
       Max VN number:   0.44E+00 at (   4,   4,   3)
       Total Heat Release Rate:              0.015 kW
       Radiation Loss to Boundaries:         0.013 kW
 
       Time Step   34700   July 26, 2018  11:42:45
       Step Size:    0.567E-01 s, Total Time:    1050.91 s
       Pressure Iterations:      1
       Maximum Velocity Error:  0.15E-14 on Mesh   1 at (   4   3   0)
       Maximum Pressure Error:  0.46E+01 on Mesh   1 at (   3   3   1)
       ---------------------------------------------------------------
       Max CFL number:  0.90E+00 at (   3,   3,   6)
       Max divergence:  0.66E+00 at (   4,   3,   1)
       Min divergence: -0.13E+00 at (   4,   4,   2)
       Max VN number:   0.37E+00 at (   3,   3,   5)
       Total Heat Release Rate:              0.015 kW
       Radiation Loss to Boundaries:         0.013 kW
 
       Time Step   34800   July 26, 2018  11:42:46
       Step Size:    0.635E-01 s, Total Time:    1056.73 s
       Pressure Iterations:      1
       Maximum Velocity Error:  0.15E-14 on Mesh   1 at (   4   3   0)
       Maximum Pressure Error:  0.17E+01 on Mesh   1 at (   4   4   1)
       ---------------------------------------------------------------
       Max CFL number:  0.87E+00 at (   3,   4,   7)
       Max divergence:  0.52E+00 at (   4,   3,   1)
       Min divergence: -0.51E-01 at (   5,   4,   2)
       Max VN number:   0.25E+00 at (   5,   4,   2)
       Total Heat Release Rate:              0.015 kW
       Radiation Loss to Boundaries:         0.016 kW
 
       Time Step   34900   July 26, 2018  11:42:48
       Step Size:    0.621E-01 s, Total Time:    1063.10 s
       Pressure Iterations:      1
       Maximum Velocity Error:  0.15E-14 on Mesh   1 at (   4   3   0)
       Maximum Pressure Error:  0.91E+01 on Mesh   1 at (   4   4   1)
       ---------------------------------------------------------------
       Max CFL number:  0.86E+00 at (   3,   4,   4)
       Max divergence:  0.63E+00 at (   3,   4,   1)
       Min divergence: -0.19E+00 at (   4,   4,   2)
       Max VN number:   0.37E+00 at (   4,   4,   2)
       Total Heat Release Rate:              0.014 kW
       Radiation Loss to Boundaries:         0.015 kW
 
       Time Step   35000   July 26, 2018  11:42:49
       Step Size:    0.614E-01 s, Total Time:    1069.13 s
       Pressure Iterations:      1
       Maximum Velocity Error:  0.15E-14 on Mesh   1 at (   4   3   0)
       Maximum Pressure Error:  0.85E+01 on Mesh   1 at (   3   4   1)
       ---------------------------------------------------------------
       Max CFL number:  0.91E+00 at (   3,   3,   4)
       Max divergence:  0.63E+00 at (   4,   3,   1)
       Min divergence: -0.19E+00 at (   3,   3,   3)
       Max VN number:   0.36E+00 at (   3,   3,   3)
       Total Heat Release Rate:              0.014 kW
       Radiation Loss to Boundaries:         0.014 kW
 
       Time Step   35100   July 26, 2018  11:42:51
       Step Size:    0.546E-01 s, Total Time:    1075.55 s
       Pressure Iterations:      1
       Maximum Velocity Error:  0.15E-14 on Mesh   1 at (   4   3   0)
       Maximum Pressure Error:  0.23E+01 on Mesh   1 at (   4   3   1)
       ---------------------------------------------------------------
       Max CFL number:  0.89E+00 at (   3,   3,   8)
       Max divergence:  0.63E+00 at (   3,   3,   1)
       Min divergence: -0.53E-01 at (   3,   4,   6)
       Max VN number:   0.27E+00 at (   3,   3,   7)
       Total Heat Release Rate:              0.013 kW
       Radiation Loss to Boundaries:         0.016 kW
 
       Time Step   35200   July 26, 2018  11:42:52
       Step Size:    0.466E-01 s, Total Time:    1081.71 s
       Pressure Iterations:      1
       Maximum Velocity Error:  0.15E-14 on Mesh   1 at (   4   3   0)
       Maximum Pressure Error:  0.21E+02 on Mesh   1 at (   4   3   1)
       ---------------------------------------------------------------
       Max CFL number:  0.85E+00 at (   4,   3,   3)
       Max divergence:  0.58E+00 at (   3,   3,   1)
       Min divergence: -0.22E+00 at (   4,   3,   4)
       Max VN number:   0.35E+00 at (   4,   3,   3)
       Total Heat Release Rate:              0.013 kW
       Radiation Loss to Boundaries:         0.016 kW
 
       Time Step   35300   July 26, 2018  11:42:54
       Step Size:    0.480E-01 s, Total Time:    1087.29 s
       Pressure Iterations:      1
       Maximum Velocity Error:  0.15E-14 on Mesh   1 at (   4   3   0)
       Maximum Pressure Error:  0.21E+01 on Mesh   1 at (   4   3   1)
       ---------------------------------------------------------------
       Max CFL number:  0.84E+00 at (   3,   4,   6)
       Max divergence:  0.64E+00 at (   3,   4,   1)
       Min divergence: -0.19E+00 at (   4,   5,   2)
       Max VN number:   0.32E+00 at (   3,   4,   6)
       Total Heat Release Rate:              0.013 kW
       Radiation Loss to Boundaries:         0.015 kW
 
       Time Step   35400   July 26, 2018  11:42:55
       Step Size:    0.618E-01 s, Total Time:    1093.24 s
       Pressure Iterations:      1
       Maximum Velocity Error:  0.15E-14 on Mesh   1 at (   4   3   0)
       Maximum Pressure Error:  0.39E+01 on Mesh   1 at (   4   3   1)
       ---------------------------------------------------------------
       Max CFL number:  0.87E+00 at (   3,   4,   7)
       Max divergence:  0.56E+00 at (   4,   4,   1)
       Min divergence: -0.10E+00 at (   4,   3,   2)
       Max VN number:   0.34E+00 at (   3,   4,   7)
       Total Heat Release Rate:              0.012 kW
       Radiation Loss to Boundaries:         0.015 kW
 
       Time Step   35500   July 26, 2018  11:42:57
       Step Size:    0.585E-01 s, Total Time:    1099.23 s
       Pressure Iterations:      1
       Maximum Velocity Error:  0.15E-14 on Mesh   1 at (   4   3   0)
       Maximum Pressure Error:  0.47E+01 on Mesh   1 at (   3   4   1)
       ---------------------------------------------------------------
       Max CFL number:  0.85E+00 at (   3,   3,   6)
       Max divergence:  0.58E+00 at (   3,   4,   1)
       Min divergence: -0.10E+00 at (   3,   3,   2)
       Max VN number:   0.33E+00 at (   3,   3,   5)
       Total Heat Release Rate:              0.012 kW
       Radiation Loss to Boundaries:         0.015 kW
 
       Time Step   35600   July 26, 2018  11:42:58
       Step Size:    0.597E-01 s, Total Time:    1105.23 s
       Pressure Iterations:      1
       Maximum Velocity Error:  0.16E-14 on Mesh   1 at (   4   3   0)
       Maximum Pressure Error:  0.59E+01 on Mesh   1 at (   3   4   1)
       ---------------------------------------------------------------
       Max CFL number:  0.99E+00 at (   3,   5,   6)
       Max divergence:  0.63E+00 at (   3,   3,   1)
       Min divergence: -0.33E+00 at (   3,   4,   2)
       Max VN number:   0.38E+00 at (   3,   5,   5)
       Total Heat Release Rate:              0.011 kW
       Radiation Loss to Boundaries:         0.014 kW
 
       Time Step   35700   July 26, 2018  11:43:00
       Step Size:    0.636E-01 s, Total Time:    1111.01 s
       Pressure Iterations:      1
       Maximum Velocity Error:  0.16E-14 on Mesh   1 at (   4   3   0)
       Maximum Pressure Error:  0.11E+02 on Mesh   1 at (   4   3   1)
       ---------------------------------------------------------------
       Max CFL number:  0.89E+00 at (   3,   4,   8)
       Max divergence:  0.60E+00 at (   4,   4,   1)
       Min divergence: -0.21E+00 at (   3,   3,   2)
       Max VN number:   0.34E+00 at (   3,   3,   3)
       Total Heat Release Rate:              0.012 kW
       Radiation Loss to Boundaries:         0.015 kW
 
       Time Step   35800   July 26, 2018  11:43:01
       Step Size:    0.496E-01 s, Total Time:    1116.79 s
       Pressure Iterations:      1
       Maximum Velocity Error:  0.15E-14 on Mesh   1 at (   4   3   0)
       Maximum Pressure Error:  0.34E+02 on Mesh   1 at (   4   3   1)
       ---------------------------------------------------------------
       Max CFL number:  0.85E+00 at (   4,   3,   3)
       Max divergence:  0.60E+00 at (   3,   3,   1)
       Min divergence: -0.22E+00 at (   4,   3,   3)
       Max VN number:   0.38E+00 at (   4,   3,   3)
       Total Heat Release Rate:              0.011 kW
       Radiation Loss to Boundaries:         0.016 kW
 
       Time Step   35900   July 26, 2018  11:43:03
       Step Size:    0.672E-01 s, Total Time:    1122.75 s
       Pressure Iterations:      1
       Maximum Velocity Error:  0.15E-14 on Mesh   1 at (   4   3   0)
       Maximum Pressure Error:  0.25E+02 on Mesh   1 at (   4   3   1)
       ---------------------------------------------------------------
       Max CFL number:  0.88E+00 at (   4,   3,   2)
       Max divergence:  0.61E+00 at (   3,   4,   1)
       Min divergence: -0.35E+00 at (   4,   3,   2)
       Max VN number:   0.34E+00 at (   4,   3,   2)
       Total Heat Release Rate:              0.011 kW
       Radiation Loss to Boundaries:         0.015 kW
 
       Time Step   36000   July 26, 2018  11:43:04
       Step Size:    0.567E-01 s, Total Time:    1128.66 s
       Pressure Iterations:      1
       Maximum Velocity Error:  0.15E-14 on Mesh   1 at (   4   3   0)
       Maximum Pressure Error:  0.54E+01 on Mesh   1 at (   4   3   1)
       ---------------------------------------------------------------
       Max CFL number:  0.79E+00 at (   4,   4,   8)
       Max divergence:  0.53E+00 at (   3,   4,   1)
       Min divergence: -0.95E-01 at (   3,   4,   2)
       Max VN number:   0.25E+00 at (   3,   3,   7)
       Total Heat Release Rate:              0.010 kW
       Radiation Loss to Boundaries:         0.016 kW
 
       Time Step   36100   July 26, 2018  11:43:06
       Step Size:    0.486E-01 s, Total Time:    1134.70 s
       Pressure Iterations:      1
       Maximum Velocity Error:  0.15E-14 on Mesh   1 at (   4   3   0)
       Maximum Pressure Error:  0.11E+02 on Mesh   1 at (   3   4   1)
       ---------------------------------------------------------------
       Max CFL number:  0.88E+00 at (   3,   4,   4)
       Max divergence:  0.60E+00 at (   4,   4,   1)
       Min divergence: -0.30E+00 at (   3,   4,   2)
       Max VN number:   0.38E+00 at (   3,   4,   4)
       Total Heat Release Rate:              0.010 kW
       Radiation Loss to Boundaries:         0.016 kW
 
       Time Step   36200   July 26, 2018  11:43:07
       Step Size:    0.596E-01 s, Total Time:    1140.34 s
       Pressure Iterations:      1
       Maximum Velocity Error:  0.15E-14 on Mesh   1 at (   4   3   0)
       Maximum Pressure Error:  0.28E+01 on Mesh   1 at (   3   4   1)
       ---------------------------------------------------------------
       Max CFL number:  0.80E+00 at (   4,   4,   7)
       Max divergence:  0.59E+00 at (   4,   4,   1)
       Min divergence: -0.13E+00 at (   5,   3,   2)
       Max VN number:   0.32E+00 at (   5,   3,   3)
       Total Heat Release Rate:              0.010 kW
       Radiation Loss to Boundaries:         0.016 kW
 
       Time Step   36300   July 26, 2018  11:43:09
       Step Size:    0.645E-01 s, Total Time:    1146.39 s
       Pressure Iterations:      1
       Maximum Velocity Error:  0.15E-14 on Mesh   1 at (   4   3   0)
       Maximum Pressure Error:  0.41E+01 on Mesh   1 at (   3   3   1)
       ---------------------------------------------------------------
       Max CFL number:  0.82E+00 at (   4,   4,   8)
       Max divergence:  0.61E+00 at (   3,   4,   1)
       Min divergence: -0.31E+00 at (   4,   4,   2)
       Max VN number:   0.38E+00 at (   4,   4,   2)
       Total Heat Release Rate:              0.010 kW
       Radiation Loss to Boundaries:         0.015 kW
 
       Time Step   36400   July 26, 2018  11:43:10
       Step Size:    0.580E-01 s, Total Time:    1152.46 s
       Pressure Iterations:      1
       Maximum Velocity Error:  0.15E-14 on Mesh   1 at (   4   3   0)
       Maximum Pressure Error:  0.28E+01 on Mesh   1 at (   4   3   1)
       ---------------------------------------------------------------
       Max CFL number:  0.90E+00 at (   5,   3,   6)
       Max divergence:  0.64E+00 at (   3,   3,   1)
       Min divergence: -0.36E+00 at (   4,   3,   2)
       Max VN number:   0.36E+00 at (   4,   3,   3)
       Total Heat Release Rate:              0.009 kW
       Radiation Loss to Boundaries:         0.016 kW
 
       Time Step   36500   July 26, 2018  11:43:12
       Step Size:    0.685E-01 s, Total Time:    1158.79 s
       Pressure Iterations:      1
       Maximum Velocity Error:  0.15E-14 on Mesh   1 at (   4   3   0)
       Maximum Pressure Error:  0.90E+01 on Mesh   1 at (   4   4   1)
       ---------------------------------------------------------------
       Max CFL number:  0.96E+00 at (   4,   4,   2)
       Max divergence:  0.64E+00 at (   3,   4,   1)
       Min divergence: -0.30E+00 at (   4,   4,   2)
       Max VN number:   0.46E+00 at (   4,   4,   2)
       Total Heat Release Rate:              0.009 kW
       Radiation Loss to Boundaries:         0.016 kW
 
       Time Step   36600   July 26, 2018  11:43:13
       Step Size:    0.666E-01 s, Total Time:    1165.12 s
       Pressure Iterations:      1
       Maximum Velocity Error:  0.15E-14 on Mesh   1 at (   4   3   0)
       Maximum Pressure Error:  0.19E+02 on Mesh   1 at (   4   3   1)
       ---------------------------------------------------------------
       Max CFL number:  0.84E+00 at (   4,   3,   1)
       Max divergence:  0.60E+00 at (   4,   4,   1)
       Min divergence: -0.25E+00 at (   4,   3,   2)
       Max VN number:   0.29E+00 at (   4,   4,   4)
       Total Heat Release Rate:              0.009 kW
       Radiation Loss to Boundaries:         0.016 kW
 
       Time Step   36700   July 26, 2018  11:43:15
       Step Size:    0.638E-01 s, Total Time:    1171.23 s
       Pressure Iterations:      1
       Maximum Velocity Error:  0.15E-14 on Mesh   1 at (   4   3   0)
       Maximum Pressure Error:  0.25E+01 on Mesh   1 at (   3   4   1)
       ---------------------------------------------------------------
       Max CFL number:  0.98E+00 at (   4,   3,   4)
       Max divergence:  0.59E+00 at (   3,   4,   1)
       Min divergence: -0.21E+00 at (   4,   3,   2)
       Max VN number:   0.38E+00 at (   4,   3,   4)
       Total Heat Release Rate:              0.009 kW
       Radiation Loss to Boundaries:         0.016 kW
 
       Time Step   36800   July 26, 2018  11:43:16
       Step Size:    0.701E-01 s, Total Time:    1177.44 s
       Pressure Iterations:      1
       Maximum Velocity Error:  0.15E-14 on Mesh   1 at (   4   3   0)
       Maximum Pressure Error:  0.12E+02 on Mesh   1 at (   3   4   1)
       ---------------------------------------------------------------
       Max CFL number:  0.98E+00 at (   3,   4,   4)
       Max divergence:  0.60E+00 at (   4,   4,   1)
       Min divergence: -0.13E+00 at (   3,   3,   2)
       Max VN number:   0.42E+00 at (   3,   4,   3)
       Total Heat Release Rate:              0.008 kW
       Radiation Loss to Boundaries:         0.015 kW
 
       Time Step   36900   July 26, 2018  11:43:17
       Step Size:    0.515E-01 s, Total Time:    1183.43 s
       Pressure Iterations:      1
       Maximum Velocity Error:  0.15E-14 on Mesh   1 at (   4   3   0)
       Maximum Pressure Error:  0.56E+01 on Mesh   1 at (   3   4   1)
       ---------------------------------------------------------------
       Max CFL number:  0.82E+00 at (   4,   4,   6)
       Max divergence:  0.57E+00 at (   4,   3,   1)
       Min divergence: -0.40E+00 at (   3,   4,   2)
       Max VN number:   0.34E+00 at (   4,   4,   6)
       Total Heat Release Rate:              0.008 kW
       Radiation Loss to Boundaries:         0.016 kW
 
       Time Step   37000   July 26, 2018  11:43:19
       Step Size:    0.580E-01 s, Total Time:    1189.18 s
       Pressure Iterations:      1
       Maximum Velocity Error:  0.15E-14 on Mesh   1 at (   4   3   0)
       Maximum Pressure Error:  0.61E+01 on Mesh   1 at (   3   3   1)
       ---------------------------------------------------------------
       Max CFL number:  0.83E+00 at (   3,   4,   6)
       Max divergence:  0.62E+00 at (   3,   4,   1)
       Min divergence: -0.31E+00 at (   3,   3,   2)
       Max VN number:   0.33E+00 at (   3,   4,   5)
       Total Heat Release Rate:              0.008 kW
       Radiation Loss to Boundaries:         0.015 kW
 
       Time Step   37100   July 26, 2018  11:43:20
       Step Size:    0.617E-01 s, Total Time:    1195.09 s
       Pressure Iterations:      1
       Maximum Velocity Error:  0.15E-14 on Mesh   1 at (   4   3   0)
       Maximum Pressure Error:  0.20E+02 on Mesh   1 at (   4   4   1)
       ---------------------------------------------------------------
       Max CFL number:  0.80E+00 at (   4,   3,   4)
       Max divergence:  0.56E+00 at (   3,   4,   1)
       Min divergence: -0.13E+00 at (   4,   3,   2)
       Max VN number:   0.39E+00 at (   4,   3,   3)
       Total Heat Release Rate:              0.008 kW
       Radiation Loss to Boundaries:         0.015 kW
 
       Time Step   37178   July 26, 2018  11:43:22
       Step Size:    0.206E-01 s, Total Time:    1200.00 s
       Pressure Iterations:      1
       Maximum Velocity Error:  0.15E-14 on Mesh   1 at (   4   3   0)
       Maximum Pressure Error:  0.12E+01 on Mesh   1 at (   4   3   1)
       ---------------------------------------------------------------
       Max CFL number:  0.32E+00 at (   3,   5,   7)
       Max divergence:  0.55E+00 at (   4,   3,   1)
       Min divergence: -0.23E+00 at (   3,   4,   2)
       Max VN number:   0.11E+00 at (   3,   4,   6)
       Total Heat Release Rate:              0.009 kW
       Radiation Loss to Boundaries:         0.016 kW
 


 Time Stepping Wall Clock Time (s):     1934.775
 Total Elapsed Wall Clock Time (s):     1939.167

STOP: FDS completed successfully (CHID: birch_cone_75)
