
 Fire Dynamics Simulator

 Current Date     : March 16, 2018  16:40:39
 Version          : FDS 6.5.3
 Revision         : -
 Revision Date    : 
 Compiler         : Intel ifort 18.0.1
 Compilation Date : Feb 23, 2018  15:51:19

 MPI Enabled;    Number of MPI Processes:       1
 OpenMP Enabled; Number of OpenMP Threads:     16

 MPI version: 3.1
 MPI library version: Open MPI v2.1.2, package: Open MPI tstopi@espvm5m030.ad.vtt.fi Distribution, ident: 2.1.2, repo rev: v2.1.1-188-g6157ed8, Sep 20, 2017

 Job TITLE        : TGA TEST of evaporation
 Job ID string    : birch_tga_1step_2


 Grid Dimensions, Mesh     1

   Cells in the X Direction             3
   Cells in the Y Direction             1
   Cells in the Z Direction             4


 Physical Dimensions, Mesh     1

   Length (m)                       4.000
   Width  (m)                       1.000
   Height (m)                       1.000
   Initial Time Step (s)            1.000


 Miscellaneous Parameters

   Simulation Start Time (s)          0.0
   Simulation End Time (s)        24000.0
   LES Calculation
   Eddy Viscosity:           Deardorff Model (C_DEARDORFF)                          0.10
   Near-wall Eddy Viscosity: Smagorinsky with Van Driest damping (C_SMAGORINSKY)    0.20
   Turbulent Prandtl Number          0.50
   Turbulent Schmidt Number          0.50
   Ambient Temperature (C)          20.00


 Mass Fraction Transformation Matrix to Convert Species Mixtures (Columns) to Primitive Species (Rows)

                         AIR       METHANE   PRODUCTS  WATER VA
   METHANE               0.000000  1.000000  0.000000  0.000000
   NITROGEN              0.984310  0.000000  0.981862  0.000000
   OXYGEN                0.009949  0.000000  0.000000  0.000000
   CARBON DIOXIDE        0.000592  0.000000  0.007415  0.000000
   CARBON MONOXIDE       0.000000  0.000000  0.000000  0.000000
   WATER VAPOR           0.005149  0.000000  0.010724  1.000000
   SOOT                  0.000000  0.000000  0.000000  0.000000


 Primitive Species Information

   METHANE
   Gas Species
   Molecular Weight (g/mol)            16.04246
   Ambient Density (kg/m^3)            0.667
   Enthalpy of Formation (J/kg)       -4.67E+06

   NITROGEN
   Gas Species
   Molecular Weight (g/mol)            28.01340
   Ambient Density (kg/m^3)            1.165
   Enthalpy of Formation (J/kg)        0.00E+00

   OXYGEN
   Gas Species
   Molecular Weight (g/mol)            31.99880
   Ambient Density (kg/m^3)            1.330
   Enthalpy of Formation (J/kg)        0.00E+00

   CARBON DIOXIDE
   Gas Species
   Molecular Weight (g/mol)            44.00950
   Ambient Density (kg/m^3)            1.830
   Enthalpy of Formation (J/kg)       -8.94E+06

   CARBON MONOXIDE
   Gas Species
   Molecular Weight (g/mol)            28.01010
   Ambient Density (kg/m^3)            1.164
   Enthalpy of Formation (J/kg)       -3.95E+06

   WATER VAPOR
   Gas Species
   Molecular Weight (g/mol)            18.01528
   Ambient Density (kg/m^3)            0.749
   Enthalpy of Formation (J/kg)       -1.34E+07

   SOOT
   Gas Species
   Molecular Weight (g/mol)            10.91042
   Ambient Density (kg/m^3)            0.454
   Enthalpy of Formation (J/kg)        0.00E+00


 Tracked (Lumped) Species Information

   AIR
   Molecular Weight (g/mol)            27.97414
   Ambient Density (kg/m^3)            1.163
   Initial Mass Fraction               1.000
   Enthalpy of Formation (J/kg)     -7.44E+04

   Sub Species                    Mass Fraction     Mole Fraction
   NITROGEN                       9.843103E-01      9.829307E-01
   OXYGEN                         9.948507E-03      8.697230E-03
   CARBON DIOXIDE                 5.919362E-04      3.762575E-04
   WATER VAPOR                    5.149269E-03      7.995789E-03
 
     Viscosity (kg/m/s) Ambient,  293 K:  1.74E-05
                                  500 K:  2.51E-05
                                 1000 K:  3.95E-05
                                 1500 K:  5.15E-05
   Therm. Cond. (W/m/K) Ambient,  293 K:  2.54E-02
                                  500 K:  3.74E-02
                                 1000 K:  6.51E-02
                                 1500 K:  9.04E-02
        Enthalpy (J/kg) Ambient,  293 K: -7.98E+04
                                  500 K:  1.37E+05
                                 1000 K:  6.95E+05
                                 1500 K:  1.30E+06
    Spec. Heat (J/kg/K) Ambient,  293 K:  1.04E+03
                                  500 K:  1.06E+03
                                 1000 K:  1.17E+03
                                 1500 K:  1.25E+03
   Diff. Coeff. (m^2/s) Ambient,  293 K:  1.99E-05
                                  500 K:  4.94E-05
                                 1000 K:  1.57E-04
                                 1500 K:  3.08E-04

   METHANE
   Molecular Weight (g/mol)            16.04246
   Ambient Density (kg/m^3)            0.667
   Initial Mass Fraction               0.000
   Enthalpy of Formation (J/kg)     -4.67E+06

   Sub Species                    Mass Fraction     Mole Fraction
   METHANE                        1.000000E+00      1.000000E+00
 
     Viscosity (kg/m/s) Ambient,  293 K:  1.10E-05
                                  500 K:  1.68E-05
                                 1000 K:  2.73E-05
                                 1500 K:  3.56E-05
   Therm. Cond. (W/m/K) Ambient,  293 K:  3.47E-02
                                  500 K:  6.96E-02
                                 1000 K:  1.79E-01
                                 1500 K:  2.88E-01
        Enthalpy (J/kg) Ambient,  293 K: -4.66E+06
                                  500 K: -4.14E+06
                                 1000 K: -2.24E+06
                                 1500 K:  3.48E+05
    Spec. Heat (J/kg/K) Ambient,  293 K:  2.21E+03
                                  500 K:  2.90E+03
                                 1000 K:  4.59E+03
                                 1500 K:  5.66E+03
   Diff. Coeff. (m^2/s) Ambient,  293 K:  2.15E-05
                                  500 K:  5.44E-05
                                 1000 K:  1.75E-04
                                 1500 K:  3.43E-04

   PRODUCTS
   Molecular Weight (g/mol)            27.92248
   Ambient Density (kg/m^3)            1.161
   Initial Mass Fraction               0.000
   Enthalpy of Formation (J/kg)     -2.10E+05

   Sub Species                    Mass Fraction     Mole Fraction
   NITROGEN                       9.818617E-01      9.786748E-01
   CARBON DIOXIDE                 7.414777E-03      4.704415E-03
   CARBON MONOXIDE                0.000000E+00      0.000000E+00
   WATER VAPOR                    1.072352E-02      1.662074E-02
   SOOT                           0.000000E+00      0.000000E+00
 
     Viscosity (kg/m/s) Ambient,  293 K:  1.73E-05
                                  500 K:  2.50E-05
                                 1000 K:  3.94E-05
                                 1500 K:  5.14E-05
   Therm. Cond. (W/m/K) Ambient,  293 K:  2.53E-02
                                  500 K:  3.73E-02
                                 1000 K:  6.51E-02
                                 1500 K:  9.06E-02
        Enthalpy (J/kg) Ambient,  293 K: -2.16E+05
                                  500 K:  2.45E+03
                                 1000 K:  5.63E+05
                                 1500 K:  1.17E+06
    Spec. Heat (J/kg/K) Ambient,  293 K:  1.05E+03
                                  500 K:  1.07E+03
                                 1000 K:  1.18E+03
                                 1500 K:  1.26E+03
   Diff. Coeff. (m^2/s) Ambient,  293 K:  1.99E-05
                                  500 K:  4.94E-05
                                 1000 K:  1.57E-04
                                 1500 K:  3.08E-04

   WATER VAPOR
   Molecular Weight (g/mol)            18.01528
   Ambient Density (kg/m^3)            0.749
   Initial Mass Fraction               0.000
   Enthalpy of Formation (J/kg)     -1.34E+07

   Sub Species                    Mass Fraction     Mole Fraction
   WATER VAPOR                    1.000000E+00      1.000000E+00
 
     Viscosity (kg/m/s) Ambient,  293 K:  1.05E-05
                                  500 K:  1.77E-05
                                 1000 K:  3.58E-05
                                 1500 K:  5.21E-05
   Therm. Cond. (W/m/K) Ambient,  293 K:  1.96E-02
                                  500 K:  3.46E-02
                                 1000 K:  8.21E-02
                                 1500 K:  1.37E-01
        Enthalpy (J/kg) Ambient,  293 K: -1.34E+07
                                  500 K: -1.30E+07
                                 1000 K: -1.20E+07
                                 1500 K: -1.07E+07
    Spec. Heat (J/kg/K) Ambient,  293 K:  1.86E+03
                                  500 K:  1.96E+03
                                 1000 K:  2.29E+03
                                 1500 K:  2.63E+03
   Diff. Coeff. (m^2/s) Ambient,  293 K:  2.10E-05
                                  500 K:  5.78E-05
                                 1000 K:  1.98E-04
                                 1500 K:  3.95E-04


 Gas Phase Reaction Information

   Fuel                                           Heat of Combustion (kJ/kg)
   METHANE                                                        50010.3475

   Stoichiometry

   Primitive Species Stoich. Coeff.
   Species ID                                                          Molar
   METHANE                                                         -1.000000
   OXYGEN                                                          -2.000000
   CARBON DIOXIDE                                                   1.000000
   WATER VAPOR                                                      2.000000

   Tracked (Lumped) Species Stoich. Coeff.
   Species ID                                             Molar         Mass
   AIR                                              -229.958282  -400.991161
   METHANE                                            -1.000000    -1.000000
   PRODUCTS                                          230.958282   401.991161

   Reaction Kinetics

   Arrhenius Parameters
   Pre-exponential:    Infinite
   Activation Energy:  N/A

   ODE Solver:  EXPLICIT EULER
   Extinction Model:  EXTINCTION 2
   Ignition Temperature (K):            0.0
   Critical Flame Temperature (K):   2273.2


 Material Information

   1 MOISTURE                                                    
     Emissivity                      1.000
     Density (kg/m3)                1000.0
     Specific Heat (kJ/kg/K)          4.19
     Conductivity (W/m/K)           0.6000
     Reaction  1
        Gaseous Yields:
        AIR                                                         :     0.00
        METHANE                                                     :     0.00
        PRODUCTS                                                    :     0.00
        WATER VAPOR                                                 :     1.00
        A (1/s)    :  1.00E+13
        E (kJ/kmol):  1.00E+05
        H_R (kJ/kg):  2.26E+03
        N_S        :     1.00

   2 BIRCH                                                       
     Emissivity                      1.000
     Density (kg/m3)                 550.0
     Specific Heat (kJ/kg/K)          1.34
     Conductivity (W/m/K)           0.2000
     Reaction  1
        Residue: CHAR, Material Index:  3, Yield:  0.172
        Gaseous Yields:
        AIR                                                         :     0.00
        METHANE                                                     :     0.83
        PRODUCTS                                                    :     0.00
        WATER VAPOR                                                 :     0.00
        A (1/s)    :  2.75E+12
        E (kJ/kmol):  1.75E+05
        H_R (kJ/kg):  2.18E+02
        N_S        :     1.00

   3 CHAR                                                        
     Emissivity                      1.000
     Density (kg/m3)                 140.0
     Specific Heat (kJ/kg/K)          1.10
     Conductivity (W/m/K)           0.0900


 Surface Conditions

   0 INERT (DEFAULT)

   1 SAMPLE
     Material List
          1  BIRCH
          2  MOISTURE
          3  CHAR
     Layer  1
        Thickness   (m):  0.00001
        Density (kg/m3):   556.89
        BIRCH, Mass fraction:    0.97
        MOISTURE, Mass fraction:    0.03
     Total surface density     0.006 kg/m2
     Solid Phase Node, Layer, Coordinates(m):
                    0      1       0.0000000
                    1      1       0.0000100
     Insulated Backing

   2 HOT
     Wall or Vent Temperature (C)   820.0

   3 OPEN
     Passive Vent to Atmosphere

   4 MIRROR
     Symmetry Plane

   5 INTERPOLATED

   6 PERIODIC

   7 HVAC

   8 MASSLESS TRACER

   9 DROPLET

  10 VEGETATION

  11 EVACUATION_OUTFLOW
     Normal Velocity (m/s)         0.000

  12 MASSLESS TARGET

  13 PERIODIC WIND


 Device Coordinates

     1 Coords:     0.00     0.00     0.00, Make: null, ID: null, Quantity: SURFACE DENSITY
     2 Coords:     0.00     0.00     1.00, Make: null, ID: null, Quantity: WALL TEMPERATURE
     3 Coords:     0.00     0.00     0.00, Make: null, ID: null, Quantity: WALL TEMPERATURE


 Radiation Model Information

   Number of control angles   20
   Time step increment         2
   Angle increment             1
   Phi band   N_theta Solid angle
     1:       20  0.63
   Using constant absorption coefficient of   0.000 1/m
 
 

 Run Time Diagnostics

       Time Step       1   March 16, 2018  16:40:39
       Step Size:    0.100E+01 s, Total Time:       1.00 s
       Pressure Iterations:      1
       Maximum Velocity Error:  0.00E+00 on Mesh   1 at (   0   0   0)
       Maximum Pressure Error:  0.00E+00 on Mesh   1 at (   0   0   0)
       ---------------------------------------------------------------
       Max CFL number:  0.00E+00 at (   0,   0,   0)
       Max divergence:  0.17E-17 at (   3,   1,   2)
       Min divergence: -0.87E-18 at (   1,   1,   2)
       Max VN number:   0.00E+00 at (   0,   0,   0)
 
       Time Step       2   March 16, 2018  16:40:39
       Step Size:    0.100E+01 s, Total Time:       2.00 s
       Pressure Iterations:      1
       Maximum Velocity Error:  0.00E+00 on Mesh   1 at (   0   0   0)
       Maximum Pressure Error:  0.00E+00 on Mesh   1 at (   0   0   0)
       ---------------------------------------------------------------
       Max CFL number:  0.00E+00 at (   0,   0,   0)
       Max divergence:  0.17E-17 at (   3,   1,   2)
       Min divergence: -0.87E-18 at (   1,   1,   2)
       Max VN number:   0.00E+00 at (   0,   0,   0)
 
       Time Step       3   March 16, 2018  16:40:39
       Step Size:    0.100E+01 s, Total Time:       3.00 s
       Pressure Iterations:      1
       Maximum Velocity Error:  0.00E+00 on Mesh   1 at (   0   0   0)
       Maximum Pressure Error:  0.00E+00 on Mesh   1 at (   0   0   0)
       ---------------------------------------------------------------
       Max CFL number:  0.00E+00 at (   0,   0,   0)
       Max divergence:  0.17E-17 at (   3,   1,   2)
       Min divergence: -0.87E-18 at (   1,   1,   2)
       Max VN number:   0.00E+00 at (   0,   0,   0)
 
       Time Step       4   March 16, 2018  16:40:39
       Step Size:    0.100E+01 s, Total Time:       4.00 s
       Pressure Iterations:      1
       Maximum Velocity Error:  0.00E+00 on Mesh   1 at (   0   0   0)
       Maximum Pressure Error:  0.00E+00 on Mesh   1 at (   0   0   0)
       ---------------------------------------------------------------
       Max CFL number:  0.00E+00 at (   0,   0,   0)
       Max divergence:  0.17E-17 at (   3,   1,   2)
       Min divergence: -0.87E-18 at (   1,   1,   2)
       Max VN number:   0.00E+00 at (   0,   0,   0)
 
       Time Step       5   March 16, 2018  16:40:39
       Step Size:    0.100E+01 s, Total Time:       5.00 s
       Pressure Iterations:      1
       Maximum Velocity Error:  0.00E+00 on Mesh   1 at (   0   0   0)
       Maximum Pressure Error:  0.00E+00 on Mesh   1 at (   0   0   0)
       ---------------------------------------------------------------
       Max CFL number:  0.00E+00 at (   0,   0,   0)
       Max divergence:  0.17E-17 at (   3,   1,   2)
       Min divergence: -0.87E-18 at (   1,   1,   2)
       Max VN number:   0.00E+00 at (   0,   0,   0)
 
       Time Step       6   March 16, 2018  16:40:39
       Step Size:    0.100E+01 s, Total Time:       6.00 s
       Pressure Iterations:      1
       Maximum Velocity Error:  0.00E+00 on Mesh   1 at (   0   0   0)
       Maximum Pressure Error:  0.00E+00 on Mesh   1 at (   0   0   0)
       ---------------------------------------------------------------
       Max CFL number:  0.00E+00 at (   0,   0,   0)
       Max divergence:  0.17E-17 at (   3,   1,   2)
       Min divergence: -0.87E-18 at (   1,   1,   2)
       Max VN number:   0.00E+00 at (   0,   0,   0)
 
       Time Step       7   March 16, 2018  16:40:39
       Step Size:    0.100E+01 s, Total Time:       7.00 s
       Pressure Iterations:      1
       Maximum Velocity Error:  0.00E+00 on Mesh   1 at (   0   0   0)
       Maximum Pressure Error:  0.00E+00 on Mesh   1 at (   0   0   0)
       ---------------------------------------------------------------
       Max CFL number:  0.00E+00 at (   0,   0,   0)
       Max divergence:  0.17E-17 at (   3,   1,   2)
       Min divergence: -0.87E-18 at (   1,   1,   2)
       Max VN number:   0.00E+00 at (   0,   0,   0)
 
       Time Step       8   March 16, 2018  16:40:39
       Step Size:    0.100E+01 s, Total Time:       8.00 s
       Pressure Iterations:      1
       Maximum Velocity Error:  0.00E+00 on Mesh   1 at (   0   0   0)
       Maximum Pressure Error:  0.00E+00 on Mesh   1 at (   0   0   0)
       ---------------------------------------------------------------
       Max CFL number:  0.00E+00 at (   0,   0,   0)
       Max divergence:  0.17E-17 at (   3,   1,   2)
       Min divergence: -0.87E-18 at (   1,   1,   2)
       Max VN number:   0.00E+00 at (   0,   0,   0)
 
       Time Step       9   March 16, 2018  16:40:39
       Step Size:    0.100E+01 s, Total Time:       9.00 s
       Pressure Iterations:      1
       Maximum Velocity Error:  0.00E+00 on Mesh   1 at (   0   0   0)
       Maximum Pressure Error:  0.00E+00 on Mesh   1 at (   0   0   0)
       ---------------------------------------------------------------
       Max CFL number:  0.00E+00 at (   0,   0,   0)
       Max divergence:  0.17E-17 at (   3,   1,   2)
       Min divergence: -0.87E-18 at (   1,   1,   2)
       Max VN number:   0.00E+00 at (   0,   0,   0)
 
       Time Step      10   March 16, 2018  16:40:39
       Step Size:    0.100E+01 s, Total Time:      10.00 s
       Pressure Iterations:      1
       Maximum Velocity Error:  0.00E+00 on Mesh   1 at (   0   0   0)
       Maximum Pressure Error:  0.00E+00 on Mesh   1 at (   0   0   0)
       ---------------------------------------------------------------
       Max CFL number:  0.00E+00 at (   0,   0,   0)
       Max divergence:  0.17E-17 at (   3,   1,   2)
       Min divergence: -0.87E-18 at (   1,   1,   2)
       Max VN number:   0.00E+00 at (   0,   0,   0)
 
       Time Step      20   March 16, 2018  16:40:39
       Step Size:    0.100E+01 s, Total Time:      20.00 s
       Pressure Iterations:      1
       Maximum Velocity Error:  0.00E+00 on Mesh   1 at (   0   0   0)
       Maximum Pressure Error:  0.00E+00 on Mesh   1 at (   0   0   0)
       ---------------------------------------------------------------
       Max CFL number:  0.00E+00 at (   0,   0,   0)
       Max divergence:  0.17E-17 at (   3,   1,   2)
       Min divergence: -0.87E-18 at (   1,   1,   2)
       Max VN number:   0.00E+00 at (   0,   0,   0)
 
       Time Step      30   March 16, 2018  16:40:39
       Step Size:    0.100E+01 s, Total Time:      30.00 s
       Pressure Iterations:      1
       Maximum Velocity Error:  0.00E+00 on Mesh   1 at (   0   0   0)
       Maximum Pressure Error:  0.00E+00 on Mesh   1 at (   0   0   0)
       ---------------------------------------------------------------
       Max CFL number:  0.00E+00 at (   0,   0,   0)
       Max divergence:  0.17E-17 at (   3,   1,   2)
       Min divergence: -0.87E-18 at (   1,   1,   2)
       Max VN number:   0.00E+00 at (   0,   0,   0)
 
       Time Step      40   March 16, 2018  16:40:39
       Step Size:    0.100E+01 s, Total Time:      40.00 s
       Pressure Iterations:      1
       Maximum Velocity Error:  0.00E+00 on Mesh   1 at (   0   0   0)
       Maximum Pressure Error:  0.00E+00 on Mesh   1 at (   0   0   0)
       ---------------------------------------------------------------
       Max CFL number:  0.00E+00 at (   0,   0,   0)
       Max divergence:  0.17E-17 at (   3,   1,   2)
       Min divergence: -0.87E-18 at (   1,   1,   2)
       Max VN number:   0.00E+00 at (   0,   0,   0)
 
       Time Step      50   March 16, 2018  16:40:39
       Step Size:    0.100E+01 s, Total Time:      50.00 s
       Pressure Iterations:      1
       Maximum Velocity Error:  0.00E+00 on Mesh   1 at (   0   0   0)
       Maximum Pressure Error:  0.00E+00 on Mesh   1 at (   0   0   0)
       ---------------------------------------------------------------
       Max CFL number:  0.00E+00 at (   0,   0,   0)
       Max divergence:  0.17E-17 at (   3,   1,   2)
       Min divergence: -0.87E-18 at (   1,   1,   2)
       Max VN number:   0.00E+00 at (   0,   0,   0)
 
       Time Step      60   March 16, 2018  16:40:39
       Step Size:    0.100E+01 s, Total Time:      60.00 s
       Pressure Iterations:      1
       Maximum Velocity Error:  0.00E+00 on Mesh   1 at (   0   0   0)
       Maximum Pressure Error:  0.00E+00 on Mesh   1 at (   0   0   0)
       ---------------------------------------------------------------
       Max CFL number:  0.00E+00 at (   0,   0,   0)
       Max divergence:  0.17E-17 at (   3,   1,   2)
       Min divergence: -0.87E-18 at (   1,   1,   2)
       Max VN number:   0.00E+00 at (   0,   0,   0)
 
       Time Step      70   March 16, 2018  16:40:39
       Step Size:    0.100E+01 s, Total Time:      70.00 s
       Pressure Iterations:      1
       Maximum Velocity Error:  0.00E+00 on Mesh   1 at (   0   0   0)
       Maximum Pressure Error:  0.00E+00 on Mesh   1 at (   0   0   0)
       ---------------------------------------------------------------
       Max CFL number:  0.00E+00 at (   0,   0,   0)
       Max divergence:  0.17E-17 at (   3,   1,   2)
       Min divergence: -0.87E-18 at (   1,   1,   2)
       Max VN number:   0.00E+00 at (   0,   0,   0)
 
       Time Step      80   March 16, 2018  16:40:39
       Step Size:    0.100E+01 s, Total Time:      80.00 s
       Pressure Iterations:      1
       Maximum Velocity Error:  0.00E+00 on Mesh   1 at (   0   0   0)
       Maximum Pressure Error:  0.00E+00 on Mesh   1 at (   0   0   0)
       ---------------------------------------------------------------
       Max CFL number:  0.00E+00 at (   0,   0,   0)
       Max divergence:  0.17E-17 at (   3,   1,   2)
       Min divergence: -0.87E-18 at (   1,   1,   2)
       Max VN number:   0.00E+00 at (   0,   0,   0)
 
       Time Step      90   March 16, 2018  16:40:39
       Step Size:    0.100E+01 s, Total Time:      90.00 s
       Pressure Iterations:      1
       Maximum Velocity Error:  0.00E+00 on Mesh   1 at (   0   0   0)
       Maximum Pressure Error:  0.00E+00 on Mesh   1 at (   0   0   0)
       ---------------------------------------------------------------
       Max CFL number:  0.00E+00 at (   0,   0,   0)
       Max divergence:  0.17E-17 at (   3,   1,   2)
       Min divergence: -0.87E-18 at (   1,   1,   2)
       Max VN number:   0.00E+00 at (   0,   0,   0)
 
       Time Step     100   March 16, 2018  16:40:39
       Step Size:    0.100E+01 s, Total Time:     100.00 s
       Pressure Iterations:      1
       Maximum Velocity Error:  0.00E+00 on Mesh   1 at (   0   0   0)
       Maximum Pressure Error:  0.00E+00 on Mesh   1 at (   0   0   0)
       ---------------------------------------------------------------
       Max CFL number:  0.00E+00 at (   0,   0,   0)
       Max divergence:  0.17E-17 at (   3,   1,   2)
       Min divergence: -0.87E-18 at (   1,   1,   2)
       Max VN number:   0.00E+00 at (   0,   0,   0)
 
       Time Step     200   March 16, 2018  16:40:40
       Step Size:    0.100E+01 s, Total Time:     200.00 s
       Pressure Iterations:      1
       Maximum Velocity Error:  0.00E+00 on Mesh   1 at (   0   0   0)
       Maximum Pressure Error:  0.00E+00 on Mesh   1 at (   0   0   0)
       ---------------------------------------------------------------
       Max CFL number:  0.00E+00 at (   0,   0,   0)
       Max divergence:  0.17E-17 at (   3,   1,   2)
       Min divergence: -0.87E-18 at (   1,   1,   2)
       Max VN number:   0.00E+00 at (   0,   0,   0)
 
       Time Step     300   March 16, 2018  16:40:40
       Step Size:    0.100E+01 s, Total Time:     300.00 s
       Pressure Iterations:      1
       Maximum Velocity Error:  0.00E+00 on Mesh   1 at (   0   0   0)
       Maximum Pressure Error:  0.00E+00 on Mesh   1 at (   0   0   0)
       ---------------------------------------------------------------
       Max CFL number:  0.00E+00 at (   0,   0,   0)
       Max divergence:  0.17E-17 at (   3,   1,   2)
       Min divergence: -0.87E-18 at (   1,   1,   2)
       Max VN number:   0.00E+00 at (   0,   0,   0)
 
       Time Step     400   March 16, 2018  16:40:40
       Step Size:    0.100E+01 s, Total Time:     400.00 s
       Pressure Iterations:      1
       Maximum Velocity Error:  0.00E+00 on Mesh   1 at (   0   0   0)
       Maximum Pressure Error:  0.00E+00 on Mesh   1 at (   0   0   0)
       ---------------------------------------------------------------
       Max CFL number:  0.00E+00 at (   0,   0,   0)
       Max divergence:  0.17E-17 at (   3,   1,   2)
       Min divergence: -0.87E-18 at (   1,   1,   2)
       Max VN number:   0.00E+00 at (   0,   0,   0)
 
       Time Step     500   March 16, 2018  16:40:40
       Step Size:    0.100E+01 s, Total Time:     500.00 s
       Pressure Iterations:      1
       Maximum Velocity Error:  0.00E+00 on Mesh   1 at (   0   0   0)
       Maximum Pressure Error:  0.00E+00 on Mesh   1 at (   0   0   0)
       ---------------------------------------------------------------
       Max CFL number:  0.00E+00 at (   0,   0,   0)
       Max divergence:  0.17E-17 at (   3,   1,   2)
       Min divergence: -0.87E-18 at (   1,   1,   2)
       Max VN number:   0.00E+00 at (   0,   0,   0)
 
       Time Step     600   March 16, 2018  16:40:40
       Step Size:    0.100E+01 s, Total Time:     600.00 s
       Pressure Iterations:      1
       Maximum Velocity Error:  0.00E+00 on Mesh   1 at (   0   0   0)
       Maximum Pressure Error:  0.00E+00 on Mesh   1 at (   0   0   0)
       ---------------------------------------------------------------
       Max CFL number:  0.00E+00 at (   0,   0,   0)
       Max divergence:  0.17E-17 at (   3,   1,   2)
       Min divergence: -0.87E-18 at (   1,   1,   2)
       Max VN number:   0.00E+00 at (   0,   0,   0)
 
       Time Step     700   March 16, 2018  16:40:40
       Step Size:    0.100E+01 s, Total Time:     700.00 s
       Pressure Iterations:      1
       Maximum Velocity Error:  0.00E+00 on Mesh   1 at (   0   0   0)
       Maximum Pressure Error:  0.00E+00 on Mesh   1 at (   0   0   0)
       ---------------------------------------------------------------
       Max CFL number:  0.00E+00 at (   0,   0,   0)
       Max divergence:  0.17E-17 at (   3,   1,   2)
       Min divergence: -0.87E-18 at (   1,   1,   2)
       Max VN number:   0.00E+00 at (   0,   0,   0)
 
       Time Step     800   March 16, 2018  16:40:40
       Step Size:    0.100E+01 s, Total Time:     800.00 s
       Pressure Iterations:      1
       Maximum Velocity Error:  0.00E+00 on Mesh   1 at (   0   0   0)
       Maximum Pressure Error:  0.00E+00 on Mesh   1 at (   0   0   0)
       ---------------------------------------------------------------
       Max CFL number:  0.00E+00 at (   0,   0,   0)
       Max divergence:  0.17E-17 at (   3,   1,   2)
       Min divergence: -0.87E-18 at (   1,   1,   2)
       Max VN number:   0.00E+00 at (   0,   0,   0)
 
       Time Step     900   March 16, 2018  16:40:40
       Step Size:    0.100E+01 s, Total Time:     900.00 s
       Pressure Iterations:      1
       Maximum Velocity Error:  0.00E+00 on Mesh   1 at (   0   0   0)
       Maximum Pressure Error:  0.00E+00 on Mesh   1 at (   0   0   0)
       ---------------------------------------------------------------
       Max CFL number:  0.00E+00 at (   0,   0,   0)
       Max divergence:  0.17E-17 at (   3,   1,   2)
       Min divergence: -0.87E-18 at (   1,   1,   2)
       Max VN number:   0.00E+00 at (   0,   0,   0)
 
       Time Step    1000   March 16, 2018  16:40:40
       Step Size:    0.100E+01 s, Total Time:    1000.00 s
       Pressure Iterations:      1
       Maximum Velocity Error:  0.00E+00 on Mesh   1 at (   0   0   0)
       Maximum Pressure Error:  0.00E+00 on Mesh   1 at (   0   0   0)
       ---------------------------------------------------------------
       Max CFL number:  0.00E+00 at (   0,   0,   0)
       Max divergence:  0.17E-17 at (   3,   1,   2)
       Min divergence: -0.87E-18 at (   1,   1,   2)
       Max VN number:   0.00E+00 at (   0,   0,   0)
 
       Time Step    1100   March 16, 2018  16:40:40
       Step Size:    0.100E+01 s, Total Time:    1100.00 s
       Pressure Iterations:      1
       Maximum Velocity Error:  0.00E+00 on Mesh   1 at (   0   0   0)
       Maximum Pressure Error:  0.00E+00 on Mesh   1 at (   0   0   0)
       ---------------------------------------------------------------
       Max CFL number:  0.00E+00 at (   0,   0,   0)
       Max divergence:  0.17E-17 at (   3,   1,   2)
       Min divergence: -0.87E-18 at (   1,   1,   2)
       Max VN number:   0.00E+00 at (   0,   0,   0)
 
       Time Step    1200   March 16, 2018  16:40:41
       Step Size:    0.100E+01 s, Total Time:    1200.00 s
       Pressure Iterations:      1
       Maximum Velocity Error:  0.00E+00 on Mesh   1 at (   0   0   0)
       Maximum Pressure Error:  0.00E+00 on Mesh   1 at (   0   0   0)
       ---------------------------------------------------------------
       Max CFL number:  0.00E+00 at (   0,   0,   0)
       Max divergence:  0.17E-17 at (   3,   1,   2)
       Min divergence: -0.87E-18 at (   1,   1,   2)
       Max VN number:   0.00E+00 at (   0,   0,   0)
 
       Time Step    1300   March 16, 2018  16:40:41
       Step Size:    0.100E+01 s, Total Time:    1300.00 s
       Pressure Iterations:      1
       Maximum Velocity Error:  0.00E+00 on Mesh   1 at (   0   0   0)
       Maximum Pressure Error:  0.00E+00 on Mesh   1 at (   0   0   0)
       ---------------------------------------------------------------
       Max CFL number:  0.00E+00 at (   0,   0,   0)
       Max divergence:  0.17E-17 at (   3,   1,   2)
       Min divergence: -0.87E-18 at (   1,   1,   2)
       Max VN number:   0.00E+00 at (   0,   0,   0)
 
       Time Step    1400   March 16, 2018  16:40:41
       Step Size:    0.100E+01 s, Total Time:    1400.00 s
       Pressure Iterations:      1
       Maximum Velocity Error:  0.00E+00 on Mesh   1 at (   0   0   0)
       Maximum Pressure Error:  0.00E+00 on Mesh   1 at (   0   0   0)
       ---------------------------------------------------------------
       Max CFL number:  0.00E+00 at (   0,   0,   0)
       Max divergence:  0.17E-17 at (   3,   1,   2)
       Min divergence: -0.87E-18 at (   1,   1,   2)
       Max VN number:   0.00E+00 at (   0,   0,   0)
 
       Time Step    1500   March 16, 2018  16:40:41
       Step Size:    0.100E+01 s, Total Time:    1500.00 s
       Pressure Iterations:      1
       Maximum Velocity Error:  0.00E+00 on Mesh   1 at (   0   0   0)
       Maximum Pressure Error:  0.00E+00 on Mesh   1 at (   0   0   0)
       ---------------------------------------------------------------
       Max CFL number:  0.00E+00 at (   0,   0,   0)
       Max divergence:  0.17E-17 at (   3,   1,   2)
       Min divergence: -0.87E-18 at (   1,   1,   2)
       Max VN number:   0.00E+00 at (   0,   0,   0)
 
       Time Step    1600   March 16, 2018  16:40:41
       Step Size:    0.100E+01 s, Total Time:    1600.00 s
       Pressure Iterations:      1
       Maximum Velocity Error:  0.00E+00 on Mesh   1 at (   0   0   0)
       Maximum Pressure Error:  0.00E+00 on Mesh   1 at (   0   0   0)
       ---------------------------------------------------------------
       Max CFL number:  0.00E+00 at (   0,   0,   0)
       Max divergence:  0.17E-17 at (   3,   1,   2)
       Min divergence: -0.87E-18 at (   1,   1,   2)
       Max VN number:   0.00E+00 at (   0,   0,   0)
 
       Time Step    1700   March 16, 2018  16:40:41
       Step Size:    0.100E+01 s, Total Time:    1700.00 s
       Pressure Iterations:      1
       Maximum Velocity Error:  0.00E+00 on Mesh   1 at (   0   0   0)
       Maximum Pressure Error:  0.00E+00 on Mesh   1 at (   0   0   0)
       ---------------------------------------------------------------
       Max CFL number:  0.00E+00 at (   0,   0,   0)
       Max divergence:  0.17E-17 at (   3,   1,   2)
       Min divergence: -0.87E-18 at (   1,   1,   2)
       Max VN number:   0.00E+00 at (   0,   0,   0)
 
       Time Step    1800   March 16, 2018  16:40:41
       Step Size:    0.100E+01 s, Total Time:    1800.00 s
       Pressure Iterations:      1
       Maximum Velocity Error:  0.00E+00 on Mesh   1 at (   0   0   0)
       Maximum Pressure Error:  0.00E+00 on Mesh   1 at (   0   0   0)
       ---------------------------------------------------------------
       Max CFL number:  0.00E+00 at (   0,   0,   0)
       Max divergence:  0.17E-17 at (   3,   1,   2)
       Min divergence: -0.87E-18 at (   1,   1,   2)
       Max VN number:   0.00E+00 at (   0,   0,   0)
 
       Time Step    1900   March 16, 2018  16:40:41
       Step Size:    0.100E+01 s, Total Time:    1900.00 s
       Pressure Iterations:      1
       Maximum Velocity Error:  0.00E+00 on Mesh   1 at (   0   0   0)
       Maximum Pressure Error:  0.00E+00 on Mesh   1 at (   0   0   0)
       ---------------------------------------------------------------
       Max CFL number:  0.00E+00 at (   0,   0,   0)
       Max divergence:  0.17E-17 at (   3,   1,   2)
       Min divergence: -0.87E-18 at (   1,   1,   2)
       Max VN number:   0.00E+00 at (   0,   0,   0)
 
       Time Step    2000   March 16, 2018  16:40:41
       Step Size:    0.100E+01 s, Total Time:    2000.00 s
       Pressure Iterations:      1
       Maximum Velocity Error:  0.00E+00 on Mesh   1 at (   0   0   0)
       Maximum Pressure Error:  0.00E+00 on Mesh   1 at (   0   0   0)
       ---------------------------------------------------------------
       Max CFL number:  0.00E+00 at (   0,   0,   0)
       Max divergence:  0.17E-17 at (   3,   1,   2)
       Min divergence: -0.87E-18 at (   1,   1,   2)
       Max VN number:   0.00E+00 at (   0,   0,   0)
 
       Time Step    2100   March 16, 2018  16:40:41
       Step Size:    0.100E+01 s, Total Time:    2100.00 s
       Pressure Iterations:      1
       Maximum Velocity Error:  0.00E+00 on Mesh   1 at (   0   0   0)
       Maximum Pressure Error:  0.00E+00 on Mesh   1 at (   0   0   0)
       ---------------------------------------------------------------
       Max CFL number:  0.00E+00 at (   0,   0,   0)
       Max divergence:  0.17E-17 at (   3,   1,   2)
       Min divergence: -0.87E-18 at (   1,   1,   2)
       Max VN number:   0.00E+00 at (   0,   0,   0)
 
       Time Step    2200   March 16, 2018  16:40:42
       Step Size:    0.100E+01 s, Total Time:    2200.00 s
       Pressure Iterations:      1
       Maximum Velocity Error:  0.00E+00 on Mesh   1 at (   0   0   0)
       Maximum Pressure Error:  0.00E+00 on Mesh   1 at (   0   0   0)
       ---------------------------------------------------------------
       Max CFL number:  0.00E+00 at (   0,   0,   0)
       Max divergence:  0.17E-17 at (   3,   1,   2)
       Min divergence: -0.87E-18 at (   1,   1,   2)
       Max VN number:   0.00E+00 at (   0,   0,   0)
 
       Time Step    2300   March 16, 2018  16:40:42
       Step Size:    0.100E+01 s, Total Time:    2300.00 s
       Pressure Iterations:      1
       Maximum Velocity Error:  0.00E+00 on Mesh   1 at (   0   0   0)
       Maximum Pressure Error:  0.00E+00 on Mesh   1 at (   0   0   0)
       ---------------------------------------------------------------
       Max CFL number:  0.00E+00 at (   0,   0,   0)
       Max divergence:  0.17E-17 at (   3,   1,   2)
       Min divergence: -0.87E-18 at (   1,   1,   2)
       Max VN number:   0.00E+00 at (   0,   0,   0)
 
       Time Step    2400   March 16, 2018  16:40:42
       Step Size:    0.100E+01 s, Total Time:    2400.00 s
       Pressure Iterations:      1
       Maximum Velocity Error:  0.00E+00 on Mesh   1 at (   0   0   0)
       Maximum Pressure Error:  0.00E+00 on Mesh   1 at (   0   0   0)
       ---------------------------------------------------------------
       Max CFL number:  0.00E+00 at (   0,   0,   0)
       Max divergence:  0.17E-17 at (   3,   1,   2)
       Min divergence: -0.87E-18 at (   1,   1,   2)
       Max VN number:   0.00E+00 at (   0,   0,   0)
 
       Time Step    2500   March 16, 2018  16:40:42
       Step Size:    0.100E+01 s, Total Time:    2500.00 s
       Pressure Iterations:      1
       Maximum Velocity Error:  0.00E+00 on Mesh   1 at (   0   0   0)
       Maximum Pressure Error:  0.00E+00 on Mesh   1 at (   0   0   0)
       ---------------------------------------------------------------
       Max CFL number:  0.00E+00 at (   0,   0,   0)
       Max divergence:  0.17E-17 at (   3,   1,   2)
       Min divergence: -0.87E-18 at (   1,   1,   2)
       Max VN number:   0.00E+00 at (   0,   0,   0)
 
       Time Step    2600   March 16, 2018  16:40:42
       Step Size:    0.100E+01 s, Total Time:    2600.00 s
       Pressure Iterations:      1
       Maximum Velocity Error:  0.00E+00 on Mesh   1 at (   0   0   0)
       Maximum Pressure Error:  0.00E+00 on Mesh   1 at (   0   0   0)
       ---------------------------------------------------------------
       Max CFL number:  0.00E+00 at (   0,   0,   0)
       Max divergence:  0.17E-17 at (   3,   1,   2)
       Min divergence: -0.87E-18 at (   1,   1,   2)
       Max VN number:   0.00E+00 at (   0,   0,   0)
 
       Time Step    2700   March 16, 2018  16:40:42
       Step Size:    0.100E+01 s, Total Time:    2700.00 s
       Pressure Iterations:      1
       Maximum Velocity Error:  0.00E+00 on Mesh   1 at (   0   0   0)
       Maximum Pressure Error:  0.00E+00 on Mesh   1 at (   0   0   0)
       ---------------------------------------------------------------
       Max CFL number:  0.00E+00 at (   0,   0,   0)
       Max divergence:  0.17E-17 at (   3,   1,   2)
       Min divergence: -0.87E-18 at (   1,   1,   2)
       Max VN number:   0.00E+00 at (   0,   0,   0)
 
       Time Step    2800   March 16, 2018  16:40:42
       Step Size:    0.100E+01 s, Total Time:    2800.00 s
       Pressure Iterations:      1
       Maximum Velocity Error:  0.00E+00 on Mesh   1 at (   0   0   0)
       Maximum Pressure Error:  0.00E+00 on Mesh   1 at (   0   0   0)
       ---------------------------------------------------------------
       Max CFL number:  0.00E+00 at (   0,   0,   0)
       Max divergence:  0.17E-17 at (   3,   1,   2)
       Min divergence: -0.87E-18 at (   1,   1,   2)
       Max VN number:   0.00E+00 at (   0,   0,   0)
 
       Time Step    2900   March 16, 2018  16:40:42
       Step Size:    0.100E+01 s, Total Time:    2900.00 s
       Pressure Iterations:      1
       Maximum Velocity Error:  0.00E+00 on Mesh   1 at (   0   0   0)
       Maximum Pressure Error:  0.00E+00 on Mesh   1 at (   0   0   0)
       ---------------------------------------------------------------
       Max CFL number:  0.00E+00 at (   0,   0,   0)
       Max divergence:  0.17E-17 at (   3,   1,   2)
       Min divergence: -0.87E-18 at (   1,   1,   2)
       Max VN number:   0.00E+00 at (   0,   0,   0)
 
       Time Step    3000   March 16, 2018  16:40:42
       Step Size:    0.100E+01 s, Total Time:    3000.00 s
       Pressure Iterations:      1
       Maximum Velocity Error:  0.00E+00 on Mesh   1 at (   0   0   0)
       Maximum Pressure Error:  0.00E+00 on Mesh   1 at (   0   0   0)
       ---------------------------------------------------------------
       Max CFL number:  0.00E+00 at (   0,   0,   0)
       Max divergence:  0.17E-17 at (   3,   1,   2)
       Min divergence: -0.87E-18 at (   1,   1,   2)
       Max VN number:   0.00E+00 at (   0,   0,   0)
 
       Time Step    3100   March 16, 2018  16:40:43
       Step Size:    0.100E+01 s, Total Time:    3100.00 s
       Pressure Iterations:      1
       Maximum Velocity Error:  0.00E+00 on Mesh   1 at (   0   0   0)
       Maximum Pressure Error:  0.00E+00 on Mesh   1 at (   0   0   0)
       ---------------------------------------------------------------
       Max CFL number:  0.00E+00 at (   0,   0,   0)
       Max divergence:  0.17E-17 at (   3,   1,   2)
       Min divergence: -0.87E-18 at (   1,   1,   2)
       Max VN number:   0.00E+00 at (   0,   0,   0)
 
       Time Step    3200   March 16, 2018  16:40:43
       Step Size:    0.100E+01 s, Total Time:    3200.00 s
       Pressure Iterations:      1
       Maximum Velocity Error:  0.00E+00 on Mesh   1 at (   0   0   0)
       Maximum Pressure Error:  0.00E+00 on Mesh   1 at (   0   0   0)
       ---------------------------------------------------------------
       Max CFL number:  0.00E+00 at (   0,   0,   0)
       Max divergence:  0.17E-17 at (   3,   1,   2)
       Min divergence: -0.87E-18 at (   1,   1,   2)
       Max VN number:   0.00E+00 at (   0,   0,   0)
 
       Time Step    3300   March 16, 2018  16:40:43
       Step Size:    0.100E+01 s, Total Time:    3300.00 s
       Pressure Iterations:      1
       Maximum Velocity Error:  0.00E+00 on Mesh   1 at (   0   0   0)
       Maximum Pressure Error:  0.00E+00 on Mesh   1 at (   0   0   0)
       ---------------------------------------------------------------
       Max CFL number:  0.00E+00 at (   0,   0,   0)
       Max divergence:  0.17E-17 at (   3,   1,   2)
       Min divergence: -0.87E-18 at (   1,   1,   2)
       Max VN number:   0.00E+00 at (   0,   0,   0)
 
       Time Step    3400   March 16, 2018  16:40:43
       Step Size:    0.100E+01 s, Total Time:    3400.00 s
       Pressure Iterations:      1
       Maximum Velocity Error:  0.00E+00 on Mesh   1 at (   0   0   0)
       Maximum Pressure Error:  0.00E+00 on Mesh   1 at (   0   0   0)
       ---------------------------------------------------------------
       Max CFL number:  0.00E+00 at (   0,   0,   0)
       Max divergence:  0.17E-17 at (   3,   1,   2)
       Min divergence: -0.87E-18 at (   1,   1,   2)
       Max VN number:   0.00E+00 at (   0,   0,   0)
 
       Time Step    3500   March 16, 2018  16:40:43
       Step Size:    0.100E+01 s, Total Time:    3500.00 s
       Pressure Iterations:      1
       Maximum Velocity Error:  0.00E+00 on Mesh   1 at (   0   0   0)
       Maximum Pressure Error:  0.00E+00 on Mesh   1 at (   0   0   0)
       ---------------------------------------------------------------
       Max CFL number:  0.00E+00 at (   0,   0,   0)
       Max divergence:  0.17E-17 at (   3,   1,   2)
       Min divergence: -0.87E-18 at (   1,   1,   2)
       Max VN number:   0.00E+00 at (   0,   0,   0)
 
       Time Step    3600   March 16, 2018  16:40:43
       Step Size:    0.100E+01 s, Total Time:    3600.00 s
       Pressure Iterations:      1
       Maximum Velocity Error:  0.00E+00 on Mesh   1 at (   0   0   0)
       Maximum Pressure Error:  0.00E+00 on Mesh   1 at (   0   0   0)
       ---------------------------------------------------------------
       Max CFL number:  0.00E+00 at (   0,   0,   0)
       Max divergence:  0.17E-17 at (   3,   1,   2)
       Min divergence: -0.87E-18 at (   1,   1,   2)
       Max VN number:   0.00E+00 at (   0,   0,   0)
 
       Time Step    3700   March 16, 2018  16:40:43
       Step Size:    0.100E+01 s, Total Time:    3700.00 s
       Pressure Iterations:      1
       Maximum Velocity Error:  0.00E+00 on Mesh   1 at (   0   0   0)
       Maximum Pressure Error:  0.00E+00 on Mesh   1 at (   0   0   0)
       ---------------------------------------------------------------
       Max CFL number:  0.00E+00 at (   0,   0,   0)
       Max divergence:  0.17E-17 at (   3,   1,   2)
       Min divergence: -0.87E-18 at (   1,   1,   2)
       Max VN number:   0.00E+00 at (   0,   0,   0)
 
       Time Step    3800   March 16, 2018  16:40:43
       Step Size:    0.100E+01 s, Total Time:    3800.00 s
       Pressure Iterations:      1
       Maximum Velocity Error:  0.00E+00 on Mesh   1 at (   0   0   0)
       Maximum Pressure Error:  0.00E+00 on Mesh   1 at (   0   0   0)
       ---------------------------------------------------------------
       Max CFL number:  0.00E+00 at (   0,   0,   0)
       Max divergence:  0.17E-17 at (   3,   1,   2)
       Min divergence: -0.87E-18 at (   1,   1,   2)
       Max VN number:   0.00E+00 at (   0,   0,   0)
 
       Time Step    3900   March 16, 2018  16:40:43
       Step Size:    0.100E+01 s, Total Time:    3900.00 s
       Pressure Iterations:      1
       Maximum Velocity Error:  0.00E+00 on Mesh   1 at (   0   0   0)
       Maximum Pressure Error:  0.00E+00 on Mesh   1 at (   0   0   0)
       ---------------------------------------------------------------
       Max CFL number:  0.00E+00 at (   0,   0,   0)
       Max divergence:  0.17E-17 at (   3,   1,   2)
       Min divergence: -0.87E-18 at (   1,   1,   2)
       Max VN number:   0.00E+00 at (   0,   0,   0)
 
       Time Step    4000   March 16, 2018  16:40:43
       Step Size:    0.100E+01 s, Total Time:    4000.00 s
       Pressure Iterations:      1
       Maximum Velocity Error:  0.00E+00 on Mesh   1 at (   0   0   0)
       Maximum Pressure Error:  0.00E+00 on Mesh   1 at (   0   0   0)
       ---------------------------------------------------------------
       Max CFL number:  0.00E+00 at (   0,   0,   0)
       Max divergence:  0.17E-17 at (   3,   1,   2)
       Min divergence: -0.87E-18 at (   1,   1,   2)
       Max VN number:   0.00E+00 at (   0,   0,   0)
 
       Time Step    4100   March 16, 2018  16:40:43
       Step Size:    0.100E+01 s, Total Time:    4100.00 s
       Pressure Iterations:      1
       Maximum Velocity Error:  0.00E+00 on Mesh   1 at (   0   0   0)
       Maximum Pressure Error:  0.00E+00 on Mesh   1 at (   0   0   0)
       ---------------------------------------------------------------
       Max CFL number:  0.00E+00 at (   0,   0,   0)
       Max divergence:  0.17E-17 at (   3,   1,   2)
       Min divergence: -0.87E-18 at (   1,   1,   2)
       Max VN number:   0.00E+00 at (   0,   0,   0)
 
       Time Step    4200   March 16, 2018  16:40:44
       Step Size:    0.100E+01 s, Total Time:    4200.00 s
       Pressure Iterations:      1
       Maximum Velocity Error:  0.00E+00 on Mesh   1 at (   0   0   0)
       Maximum Pressure Error:  0.00E+00 on Mesh   1 at (   0   0   0)
       ---------------------------------------------------------------
       Max CFL number:  0.00E+00 at (   0,   0,   0)
       Max divergence:  0.17E-17 at (   3,   1,   2)
       Min divergence: -0.87E-18 at (   1,   1,   2)
       Max VN number:   0.00E+00 at (   0,   0,   0)
 
       Time Step    4300   March 16, 2018  16:40:44
       Step Size:    0.100E+01 s, Total Time:    4300.00 s
       Pressure Iterations:      1
       Maximum Velocity Error:  0.00E+00 on Mesh   1 at (   0   0   0)
       Maximum Pressure Error:  0.00E+00 on Mesh   1 at (   0   0   0)
       ---------------------------------------------------------------
       Max CFL number:  0.00E+00 at (   0,   0,   0)
       Max divergence:  0.17E-17 at (   3,   1,   2)
       Min divergence: -0.87E-18 at (   1,   1,   2)
       Max VN number:   0.00E+00 at (   0,   0,   0)
 
       Time Step    4400   March 16, 2018  16:40:44
       Step Size:    0.100E+01 s, Total Time:    4400.00 s
       Pressure Iterations:      1
       Maximum Velocity Error:  0.00E+00 on Mesh   1 at (   0   0   0)
       Maximum Pressure Error:  0.00E+00 on Mesh   1 at (   0   0   0)
       ---------------------------------------------------------------
       Max CFL number:  0.00E+00 at (   0,   0,   0)
       Max divergence:  0.17E-17 at (   3,   1,   2)
       Min divergence: -0.87E-18 at (   1,   1,   2)
       Max VN number:   0.00E+00 at (   0,   0,   0)
 
       Time Step    4500   March 16, 2018  16:40:44
       Step Size:    0.100E+01 s, Total Time:    4500.00 s
       Pressure Iterations:      1
       Maximum Velocity Error:  0.00E+00 on Mesh   1 at (   0   0   0)
       Maximum Pressure Error:  0.00E+00 on Mesh   1 at (   0   0   0)
       ---------------------------------------------------------------
       Max CFL number:  0.00E+00 at (   0,   0,   0)
       Max divergence:  0.17E-17 at (   3,   1,   2)
       Min divergence: -0.87E-18 at (   1,   1,   2)
       Max VN number:   0.00E+00 at (   0,   0,   0)
 
       Time Step    4600   March 16, 2018  16:40:44
       Step Size:    0.100E+01 s, Total Time:    4600.00 s
       Pressure Iterations:      1
       Maximum Velocity Error:  0.00E+00 on Mesh   1 at (   0   0   0)
       Maximum Pressure Error:  0.00E+00 on Mesh   1 at (   0   0   0)
       ---------------------------------------------------------------
       Max CFL number:  0.00E+00 at (   0,   0,   0)
       Max divergence:  0.17E-17 at (   3,   1,   2)
       Min divergence: -0.87E-18 at (   1,   1,   2)
       Max VN number:   0.00E+00 at (   0,   0,   0)
 
       Time Step    4700   March 16, 2018  16:40:44
       Step Size:    0.100E+01 s, Total Time:    4700.00 s
       Pressure Iterations:      1
       Maximum Velocity Error:  0.00E+00 on Mesh   1 at (   0   0   0)
       Maximum Pressure Error:  0.00E+00 on Mesh   1 at (   0   0   0)
       ---------------------------------------------------------------
       Max CFL number:  0.00E+00 at (   0,   0,   0)
       Max divergence:  0.17E-17 at (   3,   1,   2)
       Min divergence: -0.87E-18 at (   1,   1,   2)
       Max VN number:   0.00E+00 at (   0,   0,   0)
 
       Time Step    4800   March 16, 2018  16:40:44
       Step Size:    0.100E+01 s, Total Time:    4800.00 s
       Pressure Iterations:      1
       Maximum Velocity Error:  0.00E+00 on Mesh   1 at (   0   0   0)
       Maximum Pressure Error:  0.00E+00 on Mesh   1 at (   0   0   0)
       ---------------------------------------------------------------
       Max CFL number:  0.00E+00 at (   0,   0,   0)
       Max divergence:  0.17E-17 at (   3,   1,   2)
       Min divergence: -0.87E-18 at (   1,   1,   2)
       Max VN number:   0.00E+00 at (   0,   0,   0)
 
       Time Step    4900   March 16, 2018  16:40:44
       Step Size:    0.100E+01 s, Total Time:    4900.00 s
       Pressure Iterations:      1
       Maximum Velocity Error:  0.00E+00 on Mesh   1 at (   0   0   0)
       Maximum Pressure Error:  0.00E+00 on Mesh   1 at (   0   0   0)
       ---------------------------------------------------------------
       Max CFL number:  0.00E+00 at (   0,   0,   0)
       Max divergence:  0.17E-17 at (   3,   1,   2)
       Min divergence: -0.87E-18 at (   1,   1,   2)
       Max VN number:   0.00E+00 at (   0,   0,   0)
 
       Time Step    5000   March 16, 2018  16:40:44
       Step Size:    0.100E+01 s, Total Time:    5000.00 s
       Pressure Iterations:      1
       Maximum Velocity Error:  0.00E+00 on Mesh   1 at (   0   0   0)
       Maximum Pressure Error:  0.00E+00 on Mesh   1 at (   0   0   0)
       ---------------------------------------------------------------
       Max CFL number:  0.00E+00 at (   0,   0,   0)
       Max divergence:  0.17E-17 at (   3,   1,   2)
       Min divergence: -0.87E-18 at (   1,   1,   2)
       Max VN number:   0.00E+00 at (   0,   0,   0)
 
       Time Step    5100   March 16, 2018  16:40:45
       Step Size:    0.100E+01 s, Total Time:    5100.00 s
       Pressure Iterations:      1
       Maximum Velocity Error:  0.00E+00 on Mesh   1 at (   0   0   0)
       Maximum Pressure Error:  0.00E+00 on Mesh   1 at (   0   0   0)
       ---------------------------------------------------------------
       Max CFL number:  0.00E+00 at (   0,   0,   0)
       Max divergence:  0.17E-17 at (   3,   1,   2)
       Min divergence: -0.87E-18 at (   1,   1,   2)
       Max VN number:   0.00E+00 at (   0,   0,   0)
 
       Time Step    5200   March 16, 2018  16:40:45
       Step Size:    0.100E+01 s, Total Time:    5200.00 s
       Pressure Iterations:      1
       Maximum Velocity Error:  0.00E+00 on Mesh   1 at (   0   0   0)
       Maximum Pressure Error:  0.00E+00 on Mesh   1 at (   0   0   0)
       ---------------------------------------------------------------
       Max CFL number:  0.00E+00 at (   0,   0,   0)
       Max divergence:  0.17E-17 at (   3,   1,   2)
       Min divergence: -0.87E-18 at (   1,   1,   2)
       Max VN number:   0.00E+00 at (   0,   0,   0)
 
       Time Step    5300   March 16, 2018  16:40:45
       Step Size:    0.100E+01 s, Total Time:    5300.00 s
       Pressure Iterations:      1
       Maximum Velocity Error:  0.00E+00 on Mesh   1 at (   0   0   0)
       Maximum Pressure Error:  0.00E+00 on Mesh   1 at (   0   0   0)
       ---------------------------------------------------------------
       Max CFL number:  0.00E+00 at (   0,   0,   0)
       Max divergence:  0.17E-17 at (   3,   1,   2)
       Min divergence: -0.87E-18 at (   1,   1,   2)
       Max VN number:   0.00E+00 at (   0,   0,   0)
 
       Time Step    5400   March 16, 2018  16:40:45
       Step Size:    0.100E+01 s, Total Time:    5400.00 s
       Pressure Iterations:      1
       Maximum Velocity Error:  0.00E+00 on Mesh   1 at (   0   0   0)
       Maximum Pressure Error:  0.00E+00 on Mesh   1 at (   0   0   0)
       ---------------------------------------------------------------
       Max CFL number:  0.00E+00 at (   0,   0,   0)
       Max divergence:  0.17E-17 at (   3,   1,   2)
       Min divergence: -0.87E-18 at (   1,   1,   2)
       Max VN number:   0.00E+00 at (   0,   0,   0)
 
       Time Step    5500   March 16, 2018  16:40:45
       Step Size:    0.100E+01 s, Total Time:    5500.00 s
       Pressure Iterations:      1
       Maximum Velocity Error:  0.00E+00 on Mesh   1 at (   0   0   0)
       Maximum Pressure Error:  0.00E+00 on Mesh   1 at (   0   0   0)
       ---------------------------------------------------------------
       Max CFL number:  0.00E+00 at (   0,   0,   0)
       Max divergence:  0.17E-17 at (   3,   1,   2)
       Min divergence: -0.87E-18 at (   1,   1,   2)
       Max VN number:   0.00E+00 at (   0,   0,   0)
 
       Time Step    5600   March 16, 2018  16:40:45
       Step Size:    0.100E+01 s, Total Time:    5600.00 s
       Pressure Iterations:      1
       Maximum Velocity Error:  0.00E+00 on Mesh   1 at (   0   0   0)
       Maximum Pressure Error:  0.00E+00 on Mesh   1 at (   0   0   0)
       ---------------------------------------------------------------
       Max CFL number:  0.00E+00 at (   0,   0,   0)
       Max divergence:  0.17E-17 at (   3,   1,   2)
       Min divergence: -0.87E-18 at (   1,   1,   2)
       Max VN number:   0.00E+00 at (   0,   0,   0)
 
       Time Step    5700   March 16, 2018  16:40:45
       Step Size:    0.100E+01 s, Total Time:    5700.00 s
       Pressure Iterations:      1
       Maximum Velocity Error:  0.00E+00 on Mesh   1 at (   0   0   0)
       Maximum Pressure Error:  0.00E+00 on Mesh   1 at (   0   0   0)
       ---------------------------------------------------------------
       Max CFL number:  0.00E+00 at (   0,   0,   0)
       Max divergence:  0.17E-17 at (   3,   1,   2)
       Min divergence: -0.87E-18 at (   1,   1,   2)
       Max VN number:   0.00E+00 at (   0,   0,   0)
 
       Time Step    5800   March 16, 2018  16:40:45
       Step Size:    0.100E+01 s, Total Time:    5800.00 s
       Pressure Iterations:      1
       Maximum Velocity Error:  0.00E+00 on Mesh   1 at (   0   0   0)
       Maximum Pressure Error:  0.00E+00 on Mesh   1 at (   0   0   0)
       ---------------------------------------------------------------
       Max CFL number:  0.00E+00 at (   0,   0,   0)
       Max divergence:  0.17E-17 at (   3,   1,   2)
       Min divergence: -0.87E-18 at (   1,   1,   2)
       Max VN number:   0.00E+00 at (   0,   0,   0)
 
       Time Step    5900   March 16, 2018  16:40:45
       Step Size:    0.100E+01 s, Total Time:    5900.00 s
       Pressure Iterations:      1
       Maximum Velocity Error:  0.00E+00 on Mesh   1 at (   0   0   0)
       Maximum Pressure Error:  0.00E+00 on Mesh   1 at (   0   0   0)
       ---------------------------------------------------------------
       Max CFL number:  0.00E+00 at (   0,   0,   0)
       Max divergence:  0.17E-17 at (   3,   1,   2)
       Min divergence: -0.87E-18 at (   1,   1,   2)
       Max VN number:   0.00E+00 at (   0,   0,   0)
 
       Time Step    6000   March 16, 2018  16:40:46
       Step Size:    0.100E+01 s, Total Time:    6000.00 s
       Pressure Iterations:      1
       Maximum Velocity Error:  0.00E+00 on Mesh   1 at (   0   0   0)
       Maximum Pressure Error:  0.00E+00 on Mesh   1 at (   0   0   0)
       ---------------------------------------------------------------
       Max CFL number:  0.00E+00 at (   0,   0,   0)
       Max divergence:  0.17E-17 at (   3,   1,   2)
       Min divergence: -0.87E-18 at (   1,   1,   2)
       Max VN number:   0.00E+00 at (   0,   0,   0)
 
       Time Step    6100   March 16, 2018  16:40:46
       Step Size:    0.100E+01 s, Total Time:    6100.00 s
       Pressure Iterations:      1
       Maximum Velocity Error:  0.00E+00 on Mesh   1 at (   0   0   0)
       Maximum Pressure Error:  0.00E+00 on Mesh   1 at (   0   0   0)
       ---------------------------------------------------------------
       Max CFL number:  0.00E+00 at (   0,   0,   0)
       Max divergence:  0.17E-17 at (   3,   1,   2)
       Min divergence: -0.87E-18 at (   1,   1,   2)
       Max VN number:   0.00E+00 at (   0,   0,   0)
 
       Time Step    6200   March 16, 2018  16:40:46
       Step Size:    0.100E+01 s, Total Time:    6200.00 s
       Pressure Iterations:      1
       Maximum Velocity Error:  0.00E+00 on Mesh   1 at (   0   0   0)
       Maximum Pressure Error:  0.00E+00 on Mesh   1 at (   0   0   0)
       ---------------------------------------------------------------
       Max CFL number:  0.00E+00 at (   0,   0,   0)
       Max divergence:  0.17E-17 at (   3,   1,   2)
       Min divergence: -0.87E-18 at (   1,   1,   2)
       Max VN number:   0.00E+00 at (   0,   0,   0)
 
       Time Step    6300   March 16, 2018  16:40:46
       Step Size:    0.100E+01 s, Total Time:    6300.00 s
       Pressure Iterations:      1
       Maximum Velocity Error:  0.00E+00 on Mesh   1 at (   0   0   0)
       Maximum Pressure Error:  0.00E+00 on Mesh   1 at (   0   0   0)
       ---------------------------------------------------------------
       Max CFL number:  0.00E+00 at (   0,   0,   0)
       Max divergence:  0.17E-17 at (   3,   1,   2)
       Min divergence: -0.87E-18 at (   1,   1,   2)
       Max VN number:   0.00E+00 at (   0,   0,   0)
 
       Time Step    6400   March 16, 2018  16:40:46
       Step Size:    0.100E+01 s, Total Time:    6400.00 s
       Pressure Iterations:      1
       Maximum Velocity Error:  0.00E+00 on Mesh   1 at (   0   0   0)
       Maximum Pressure Error:  0.00E+00 on Mesh   1 at (   0   0   0)
       ---------------------------------------------------------------
       Max CFL number:  0.00E+00 at (   0,   0,   0)
       Max divergence:  0.17E-17 at (   3,   1,   2)
       Min divergence: -0.87E-18 at (   1,   1,   2)
       Max VN number:   0.00E+00 at (   0,   0,   0)
 
       Time Step    6500   March 16, 2018  16:40:46
       Step Size:    0.100E+01 s, Total Time:    6500.00 s
       Pressure Iterations:      1
       Maximum Velocity Error:  0.00E+00 on Mesh   1 at (   0   0   0)
       Maximum Pressure Error:  0.00E+00 on Mesh   1 at (   0   0   0)
       ---------------------------------------------------------------
       Max CFL number:  0.00E+00 at (   0,   0,   0)
       Max divergence:  0.17E-17 at (   3,   1,   2)
       Min divergence: -0.87E-18 at (   1,   1,   2)
       Max VN number:   0.00E+00 at (   0,   0,   0)
 
       Time Step    6600   March 16, 2018  16:40:46
       Step Size:    0.100E+01 s, Total Time:    6600.00 s
       Pressure Iterations:      1
       Maximum Velocity Error:  0.00E+00 on Mesh   1 at (   0   0   0)
       Maximum Pressure Error:  0.00E+00 on Mesh   1 at (   0   0   0)
       ---------------------------------------------------------------
       Max CFL number:  0.00E+00 at (   0,   0,   0)
       Max divergence:  0.17E-17 at (   3,   1,   2)
       Min divergence: -0.87E-18 at (   1,   1,   2)
       Max VN number:   0.00E+00 at (   0,   0,   0)
 
       Time Step    6700   March 16, 2018  16:40:46
       Step Size:    0.100E+01 s, Total Time:    6700.00 s
       Pressure Iterations:      1
       Maximum Velocity Error:  0.00E+00 on Mesh   1 at (   0   0   0)
       Maximum Pressure Error:  0.00E+00 on Mesh   1 at (   0   0   0)
       ---------------------------------------------------------------
       Max CFL number:  0.00E+00 at (   0,   0,   0)
       Max divergence:  0.17E-17 at (   3,   1,   2)
       Min divergence: -0.87E-18 at (   1,   1,   2)
       Max VN number:   0.00E+00 at (   0,   0,   0)
 
       Time Step    6800   March 16, 2018  16:40:46
       Step Size:    0.100E+01 s, Total Time:    6800.00 s
       Pressure Iterations:      1
       Maximum Velocity Error:  0.00E+00 on Mesh   1 at (   0   0   0)
       Maximum Pressure Error:  0.00E+00 on Mesh   1 at (   0   0   0)
       ---------------------------------------------------------------
       Max CFL number:  0.00E+00 at (   0,   0,   0)
       Max divergence:  0.17E-17 at (   3,   1,   2)
       Min divergence: -0.87E-18 at (   1,   1,   2)
       Max VN number:   0.00E+00 at (   0,   0,   0)
 
       Time Step    6900   March 16, 2018  16:40:47
       Step Size:    0.100E+01 s, Total Time:    6900.00 s
       Pressure Iterations:      1
       Maximum Velocity Error:  0.00E+00 on Mesh   1 at (   0   0   0)
       Maximum Pressure Error:  0.00E+00 on Mesh   1 at (   0   0   0)
       ---------------------------------------------------------------
       Max CFL number:  0.00E+00 at (   0,   0,   0)
       Max divergence:  0.17E-17 at (   3,   1,   2)
       Min divergence: -0.87E-18 at (   1,   1,   2)
       Max VN number:   0.00E+00 at (   0,   0,   0)
 
       Time Step    7000   March 16, 2018  16:40:47
       Step Size:    0.100E+01 s, Total Time:    7000.00 s
       Pressure Iterations:      1
       Maximum Velocity Error:  0.00E+00 on Mesh   1 at (   0   0   0)
       Maximum Pressure Error:  0.00E+00 on Mesh   1 at (   0   0   0)
       ---------------------------------------------------------------
       Max CFL number:  0.00E+00 at (   0,   0,   0)
       Max divergence:  0.17E-17 at (   3,   1,   2)
       Min divergence: -0.87E-18 at (   1,   1,   2)
       Max VN number:   0.00E+00 at (   0,   0,   0)
 
       Time Step    7100   March 16, 2018  16:40:47
       Step Size:    0.100E+01 s, Total Time:    7100.00 s
       Pressure Iterations:      1
       Maximum Velocity Error:  0.00E+00 on Mesh   1 at (   0   0   0)
       Maximum Pressure Error:  0.00E+00 on Mesh   1 at (   0   0   0)
       ---------------------------------------------------------------
       Max CFL number:  0.00E+00 at (   0,   0,   0)
       Max divergence:  0.17E-17 at (   3,   1,   2)
       Min divergence: -0.87E-18 at (   1,   1,   2)
       Max VN number:   0.00E+00 at (   0,   0,   0)
 
       Time Step    7200   March 16, 2018  16:40:47
       Step Size:    0.100E+01 s, Total Time:    7200.00 s
       Pressure Iterations:      1
       Maximum Velocity Error:  0.00E+00 on Mesh   1 at (   0   0   0)
       Maximum Pressure Error:  0.00E+00 on Mesh   1 at (   0   0   0)
       ---------------------------------------------------------------
       Max CFL number:  0.00E+00 at (   0,   0,   0)
       Max divergence:  0.17E-17 at (   3,   1,   2)
       Min divergence: -0.87E-18 at (   1,   1,   2)
       Max VN number:   0.00E+00 at (   0,   0,   0)
 
       Time Step    7300   March 16, 2018  16:40:47
       Step Size:    0.100E+01 s, Total Time:    7300.00 s
       Pressure Iterations:      1
       Maximum Velocity Error:  0.00E+00 on Mesh   1 at (   0   0   0)
       Maximum Pressure Error:  0.00E+00 on Mesh   1 at (   0   0   0)
       ---------------------------------------------------------------
       Max CFL number:  0.00E+00 at (   0,   0,   0)
       Max divergence:  0.17E-17 at (   3,   1,   2)
       Min divergence: -0.87E-18 at (   1,   1,   2)
       Max VN number:   0.00E+00 at (   0,   0,   0)
 
       Time Step    7400   March 16, 2018  16:40:47
       Step Size:    0.100E+01 s, Total Time:    7400.00 s
       Pressure Iterations:      1
       Maximum Velocity Error:  0.00E+00 on Mesh   1 at (   0   0   0)
       Maximum Pressure Error:  0.00E+00 on Mesh   1 at (   0   0   0)
       ---------------------------------------------------------------
       Max CFL number:  0.00E+00 at (   0,   0,   0)
       Max divergence:  0.17E-17 at (   3,   1,   2)
       Min divergence: -0.87E-18 at (   1,   1,   2)
       Max VN number:   0.00E+00 at (   0,   0,   0)
 
       Time Step    7500   March 16, 2018  16:40:47
       Step Size:    0.100E+01 s, Total Time:    7500.00 s
       Pressure Iterations:      1
       Maximum Velocity Error:  0.00E+00 on Mesh   1 at (   0   0   0)
       Maximum Pressure Error:  0.00E+00 on Mesh   1 at (   0   0   0)
       ---------------------------------------------------------------
       Max CFL number:  0.00E+00 at (   0,   0,   0)
       Max divergence:  0.17E-17 at (   3,   1,   2)
       Min divergence: -0.87E-18 at (   1,   1,   2)
       Max VN number:   0.00E+00 at (   0,   0,   0)
 
       Time Step    7600   March 16, 2018  16:40:47
       Step Size:    0.100E+01 s, Total Time:    7600.00 s
       Pressure Iterations:      1
       Maximum Velocity Error:  0.00E+00 on Mesh   1 at (   0   0   0)
       Maximum Pressure Error:  0.00E+00 on Mesh   1 at (   0   0   0)
       ---------------------------------------------------------------
       Max CFL number:  0.00E+00 at (   0,   0,   0)
       Max divergence:  0.17E-17 at (   3,   1,   2)
       Min divergence: -0.87E-18 at (   1,   1,   2)
       Max VN number:   0.00E+00 at (   0,   0,   0)
 
       Time Step    7700   March 16, 2018  16:40:47
       Step Size:    0.100E+01 s, Total Time:    7700.00 s
       Pressure Iterations:      1
       Maximum Velocity Error:  0.00E+00 on Mesh   1 at (   0   0   0)
       Maximum Pressure Error:  0.00E+00 on Mesh   1 at (   0   0   0)
       ---------------------------------------------------------------
       Max CFL number:  0.00E+00 at (   0,   0,   0)
       Max divergence:  0.17E-17 at (   3,   1,   2)
       Min divergence: -0.87E-18 at (   1,   1,   2)
       Max VN number:   0.00E+00 at (   0,   0,   0)
 
       Time Step    7800   March 16, 2018  16:40:47
       Step Size:    0.100E+01 s, Total Time:    7800.00 s
       Pressure Iterations:      1
       Maximum Velocity Error:  0.00E+00 on Mesh   1 at (   0   0   0)
       Maximum Pressure Error:  0.00E+00 on Mesh   1 at (   0   0   0)
       ---------------------------------------------------------------
       Max CFL number:  0.00E+00 at (   0,   0,   0)
       Max divergence:  0.17E-17 at (   3,   1,   2)
       Min divergence: -0.87E-18 at (   1,   1,   2)
       Max VN number:   0.00E+00 at (   0,   0,   0)
 
       Time Step    7900   March 16, 2018  16:40:48
       Step Size:    0.100E+01 s, Total Time:    7900.00 s
       Pressure Iterations:      1
       Maximum Velocity Error:  0.00E+00 on Mesh   1 at (   0   0   0)
       Maximum Pressure Error:  0.00E+00 on Mesh   1 at (   0   0   0)
       ---------------------------------------------------------------
       Max CFL number:  0.00E+00 at (   0,   0,   0)
       Max divergence:  0.17E-17 at (   3,   1,   2)
       Min divergence: -0.87E-18 at (   1,   1,   2)
       Max VN number:   0.00E+00 at (   0,   0,   0)
 
       Time Step    8000   March 16, 2018  16:40:48
       Step Size:    0.100E+01 s, Total Time:    8000.00 s
       Pressure Iterations:      1
       Maximum Velocity Error:  0.00E+00 on Mesh   1 at (   0   0   0)
       Maximum Pressure Error:  0.00E+00 on Mesh   1 at (   0   0   0)
       ---------------------------------------------------------------
       Max CFL number:  0.00E+00 at (   0,   0,   0)
       Max divergence:  0.17E-17 at (   3,   1,   2)
       Min divergence: -0.87E-18 at (   1,   1,   2)
       Max VN number:   0.00E+00 at (   0,   0,   0)
 
       Time Step    8100   March 16, 2018  16:40:48
       Step Size:    0.100E+01 s, Total Time:    8100.00 s
       Pressure Iterations:      1
       Maximum Velocity Error:  0.00E+00 on Mesh   1 at (   0   0   0)
       Maximum Pressure Error:  0.00E+00 on Mesh   1 at (   0   0   0)
       ---------------------------------------------------------------
       Max CFL number:  0.00E+00 at (   0,   0,   0)
       Max divergence:  0.17E-17 at (   3,   1,   2)
       Min divergence: -0.87E-18 at (   1,   1,   2)
       Max VN number:   0.00E+00 at (   0,   0,   0)
 
       Time Step    8200   March 16, 2018  16:40:48
       Step Size:    0.100E+01 s, Total Time:    8200.00 s
       Pressure Iterations:      1
       Maximum Velocity Error:  0.00E+00 on Mesh   1 at (   0   0   0)
       Maximum Pressure Error:  0.00E+00 on Mesh   1 at (   0   0   0)
       ---------------------------------------------------------------
       Max CFL number:  0.00E+00 at (   0,   0,   0)
       Max divergence:  0.17E-17 at (   3,   1,   2)
       Min divergence: -0.87E-18 at (   1,   1,   2)
       Max VN number:   0.00E+00 at (   0,   0,   0)
 
       Time Step    8300   March 16, 2018  16:40:48
       Step Size:    0.100E+01 s, Total Time:    8300.00 s
       Pressure Iterations:      1
       Maximum Velocity Error:  0.00E+00 on Mesh   1 at (   0   0   0)
       Maximum Pressure Error:  0.00E+00 on Mesh   1 at (   0   0   0)
       ---------------------------------------------------------------
       Max CFL number:  0.00E+00 at (   0,   0,   0)
       Max divergence:  0.17E-17 at (   3,   1,   2)
       Min divergence: -0.87E-18 at (   1,   1,   2)
       Max VN number:   0.00E+00 at (   0,   0,   0)
 
       Time Step    8400   March 16, 2018  16:40:48
       Step Size:    0.100E+01 s, Total Time:    8400.00 s
       Pressure Iterations:      1
       Maximum Velocity Error:  0.00E+00 on Mesh   1 at (   0   0   0)
       Maximum Pressure Error:  0.00E+00 on Mesh   1 at (   0   0   0)
       ---------------------------------------------------------------
       Max CFL number:  0.00E+00 at (   0,   0,   0)
       Max divergence:  0.17E-17 at (   3,   1,   2)
       Min divergence: -0.87E-18 at (   1,   1,   2)
       Max VN number:   0.00E+00 at (   0,   0,   0)
 
       Time Step    8500   March 16, 2018  16:40:48
       Step Size:    0.100E+01 s, Total Time:    8500.00 s
       Pressure Iterations:      1
       Maximum Velocity Error:  0.00E+00 on Mesh   1 at (   0   0   0)
       Maximum Pressure Error:  0.00E+00 on Mesh   1 at (   0   0   0)
       ---------------------------------------------------------------
       Max CFL number:  0.00E+00 at (   0,   0,   0)
       Max divergence:  0.17E-17 at (   3,   1,   2)
       Min divergence: -0.87E-18 at (   1,   1,   2)
       Max VN number:   0.00E+00 at (   0,   0,   0)
 
       Time Step    8600   March 16, 2018  16:40:48
       Step Size:    0.100E+01 s, Total Time:    8600.00 s
       Pressure Iterations:      1
       Maximum Velocity Error:  0.00E+00 on Mesh   1 at (   0   0   0)
       Maximum Pressure Error:  0.00E+00 on Mesh   1 at (   0   0   0)
       ---------------------------------------------------------------
       Max CFL number:  0.00E+00 at (   0,   0,   0)
       Max divergence:  0.17E-17 at (   3,   1,   2)
       Min divergence: -0.87E-18 at (   1,   1,   2)
       Max VN number:   0.00E+00 at (   0,   0,   0)
 
       Time Step    8700   March 16, 2018  16:40:48
       Step Size:    0.100E+01 s, Total Time:    8700.00 s
       Pressure Iterations:      1
       Maximum Velocity Error:  0.00E+00 on Mesh   1 at (   0   0   0)
       Maximum Pressure Error:  0.00E+00 on Mesh   1 at (   0   0   0)
       ---------------------------------------------------------------
       Max CFL number:  0.00E+00 at (   0,   0,   0)
       Max divergence:  0.17E-17 at (   3,   1,   2)
       Min divergence: -0.87E-18 at (   1,   1,   2)
       Max VN number:   0.00E+00 at (   0,   0,   0)
 
       Time Step    8800   March 16, 2018  16:40:48
       Step Size:    0.100E+01 s, Total Time:    8800.00 s
       Pressure Iterations:      1
       Maximum Velocity Error:  0.00E+00 on Mesh   1 at (   0   0   0)
       Maximum Pressure Error:  0.00E+00 on Mesh   1 at (   0   0   0)
       ---------------------------------------------------------------
       Max CFL number:  0.00E+00 at (   0,   0,   0)
       Max divergence:  0.17E-17 at (   3,   1,   2)
       Min divergence: -0.87E-18 at (   1,   1,   2)
       Max VN number:   0.00E+00 at (   0,   0,   0)
 
       Time Step    8900   March 16, 2018  16:40:49
       Step Size:    0.100E+01 s, Total Time:    8900.00 s
       Pressure Iterations:      1
       Maximum Velocity Error:  0.00E+00 on Mesh   1 at (   0   0   0)
       Maximum Pressure Error:  0.00E+00 on Mesh   1 at (   0   0   0)
       ---------------------------------------------------------------
       Max CFL number:  0.00E+00 at (   0,   0,   0)
       Max divergence:  0.17E-17 at (   3,   1,   2)
       Min divergence: -0.87E-18 at (   1,   1,   2)
       Max VN number:   0.00E+00 at (   0,   0,   0)
 
       Time Step    9000   March 16, 2018  16:40:49
       Step Size:    0.100E+01 s, Total Time:    9000.00 s
       Pressure Iterations:      1
       Maximum Velocity Error:  0.00E+00 on Mesh   1 at (   0   0   0)
       Maximum Pressure Error:  0.00E+00 on Mesh   1 at (   0   0   0)
       ---------------------------------------------------------------
       Max CFL number:  0.00E+00 at (   0,   0,   0)
       Max divergence:  0.17E-17 at (   3,   1,   2)
       Min divergence: -0.87E-18 at (   1,   1,   2)
       Max VN number:   0.00E+00 at (   0,   0,   0)
 
       Time Step    9100   March 16, 2018  16:40:49
       Step Size:    0.100E+01 s, Total Time:    9100.00 s
       Pressure Iterations:      1
       Maximum Velocity Error:  0.00E+00 on Mesh   1 at (   0   0   0)
       Maximum Pressure Error:  0.00E+00 on Mesh   1 at (   0   0   0)
       ---------------------------------------------------------------
       Max CFL number:  0.00E+00 at (   0,   0,   0)
       Max divergence:  0.17E-17 at (   3,   1,   2)
       Min divergence: -0.87E-18 at (   1,   1,   2)
       Max VN number:   0.00E+00 at (   0,   0,   0)
 
       Time Step    9200   March 16, 2018  16:40:49
       Step Size:    0.100E+01 s, Total Time:    9200.00 s
       Pressure Iterations:      1
       Maximum Velocity Error:  0.00E+00 on Mesh   1 at (   0   0   0)
       Maximum Pressure Error:  0.00E+00 on Mesh   1 at (   0   0   0)
       ---------------------------------------------------------------
       Max CFL number:  0.00E+00 at (   0,   0,   0)
       Max divergence:  0.17E-17 at (   3,   1,   2)
       Min divergence: -0.87E-18 at (   1,   1,   2)
       Max VN number:   0.00E+00 at (   0,   0,   0)
 
       Time Step    9300   March 16, 2018  16:40:49
       Step Size:    0.100E+01 s, Total Time:    9300.00 s
       Pressure Iterations:      1
       Maximum Velocity Error:  0.00E+00 on Mesh   1 at (   0   0   0)
       Maximum Pressure Error:  0.00E+00 on Mesh   1 at (   0   0   0)
       ---------------------------------------------------------------
       Max CFL number:  0.00E+00 at (   0,   0,   0)
       Max divergence:  0.17E-17 at (   3,   1,   2)
       Min divergence: -0.87E-18 at (   1,   1,   2)
       Max VN number:   0.00E+00 at (   0,   0,   0)
 
       Time Step    9400   March 16, 2018  16:40:49
       Step Size:    0.100E+01 s, Total Time:    9400.00 s
       Pressure Iterations:      1
       Maximum Velocity Error:  0.00E+00 on Mesh   1 at (   0   0   0)
       Maximum Pressure Error:  0.00E+00 on Mesh   1 at (   0   0   0)
       ---------------------------------------------------------------
       Max CFL number:  0.00E+00 at (   0,   0,   0)
       Max divergence:  0.17E-17 at (   3,   1,   2)
       Min divergence: -0.87E-18 at (   1,   1,   2)
       Max VN number:   0.00E+00 at (   0,   0,   0)
 
       Time Step    9500   March 16, 2018  16:40:49
       Step Size:    0.100E+01 s, Total Time:    9500.00 s
       Pressure Iterations:      1
       Maximum Velocity Error:  0.00E+00 on Mesh   1 at (   0   0   0)
       Maximum Pressure Error:  0.00E+00 on Mesh   1 at (   0   0   0)
       ---------------------------------------------------------------
       Max CFL number:  0.00E+00 at (   0,   0,   0)
       Max divergence:  0.17E-17 at (   3,   1,   2)
       Min divergence: -0.87E-18 at (   1,   1,   2)
       Max VN number:   0.00E+00 at (   0,   0,   0)
 
       Time Step    9600   March 16, 2018  16:40:49
       Step Size:    0.100E+01 s, Total Time:    9600.00 s
       Pressure Iterations:      1
       Maximum Velocity Error:  0.00E+00 on Mesh   1 at (   0   0   0)
       Maximum Pressure Error:  0.00E+00 on Mesh   1 at (   0   0   0)
       ---------------------------------------------------------------
       Max CFL number:  0.00E+00 at (   0,   0,   0)
       Max divergence:  0.17E-17 at (   3,   1,   2)
       Min divergence: -0.87E-18 at (   1,   1,   2)
       Max VN number:   0.00E+00 at (   0,   0,   0)
 
       Time Step    9700   March 16, 2018  16:40:49
       Step Size:    0.100E+01 s, Total Time:    9700.00 s
       Pressure Iterations:      1
       Maximum Velocity Error:  0.00E+00 on Mesh   1 at (   0   0   0)
       Maximum Pressure Error:  0.00E+00 on Mesh   1 at (   0   0   0)
       ---------------------------------------------------------------
       Max CFL number:  0.00E+00 at (   0,   0,   0)
       Max divergence:  0.17E-17 at (   3,   1,   2)
       Min divergence: -0.87E-18 at (   1,   1,   2)
       Max VN number:   0.00E+00 at (   0,   0,   0)
 
       Time Step    9800   March 16, 2018  16:40:49
       Step Size:    0.100E+01 s, Total Time:    9800.00 s
       Pressure Iterations:      1
       Maximum Velocity Error:  0.00E+00 on Mesh   1 at (   0   0   0)
       Maximum Pressure Error:  0.00E+00 on Mesh   1 at (   0   0   0)
       ---------------------------------------------------------------
       Max CFL number:  0.00E+00 at (   0,   0,   0)
       Max divergence:  0.17E-17 at (   3,   1,   2)
       Min divergence: -0.87E-18 at (   1,   1,   2)
       Max VN number:   0.00E+00 at (   0,   0,   0)
 
[...]
       Maximum Pressure Error:  0.00E+00 on Mesh   1 at (   0   0   0)
       ---------------------------------------------------------------
       Max CFL number:  0.00E+00 at (   0,   0,   0)
       Max divergence:  0.17E-17 at (   3,   1,   2)
       Min divergence: -0.87E-18 at (   1,   1,   2)
       Max VN number:   0.00E+00 at (   0,   0,   0)
 
       Time Step   20700   March 16, 2018  16:41:02
       Step Size:    0.100E+01 s, Total Time:   20700.00 s
       Pressure Iterations:      1
       Maximum Velocity Error:  0.00E+00 on Mesh   1 at (   0   0   0)
       Maximum Pressure Error:  0.00E+00 on Mesh   1 at (   0   0   0)
       ---------------------------------------------------------------
       Max CFL number:  0.00E+00 at (   0,   0,   0)
       Max divergence:  0.17E-17 at (   3,   1,   2)
       Min divergence: -0.87E-18 at (   1,   1,   2)
       Max VN number:   0.00E+00 at (   0,   0,   0)
 
       Time Step   20800   March 16, 2018  16:41:02
       Step Size:    0.100E+01 s, Total Time:   20800.00 s
       Pressure Iterations:      1
       Maximum Velocity Error:  0.00E+00 on Mesh   1 at (   0   0   0)
       Maximum Pressure Error:  0.00E+00 on Mesh   1 at (   0   0   0)
       ---------------------------------------------------------------
       Max CFL number:  0.00E+00 at (   0,   0,   0)
       Max divergence:  0.17E-17 at (   3,   1,   2)
       Min divergence: -0.87E-18 at (   1,   1,   2)
       Max VN number:   0.00E+00 at (   0,   0,   0)
 
       Time Step   20900   March 16, 2018  16:41:02
       Step Size:    0.100E+01 s, Total Time:   20900.00 s
       Pressure Iterations:      1
       Maximum Velocity Error:  0.00E+00 on Mesh   1 at (   0   0   0)
       Maximum Pressure Error:  0.00E+00 on Mesh   1 at (   0   0   0)
       ---------------------------------------------------------------
       Max CFL number:  0.00E+00 at (   0,   0,   0)
       Max divergence:  0.17E-17 at (   3,   1,   2)
       Min divergence: -0.87E-18 at (   1,   1,   2)
       Max VN number:   0.00E+00 at (   0,   0,   0)
 
       Time Step   21000   March 16, 2018  16:41:02
       Step Size:    0.100E+01 s, Total Time:   21000.00 s
       Pressure Iterations:      1
       Maximum Velocity Error:  0.00E+00 on Mesh   1 at (   0   0   0)
       Maximum Pressure Error:  0.00E+00 on Mesh   1 at (   0   0   0)
       ---------------------------------------------------------------
       Max CFL number:  0.00E+00 at (   0,   0,   0)
       Max divergence:  0.17E-17 at (   3,   1,   2)
       Min divergence: -0.87E-18 at (   1,   1,   2)
       Max VN number:   0.00E+00 at (   0,   0,   0)
 
       Time Step   21100   March 16, 2018  16:41:02
       Step Size:    0.100E+01 s, Total Time:   21100.00 s
       Pressure Iterations:      1
       Maximum Velocity Error:  0.00E+00 on Mesh   1 at (   0   0   0)
       Maximum Pressure Error:  0.00E+00 on Mesh   1 at (   0   0   0)
       ---------------------------------------------------------------
       Max CFL number:  0.00E+00 at (   0,   0,   0)
       Max divergence:  0.17E-17 at (   3,   1,   2)
       Min divergence: -0.87E-18 at (   1,   1,   2)
       Max VN number:   0.00E+00 at (   0,   0,   0)
 
       Time Step   21200   March 16, 2018  16:41:02
       Step Size:    0.100E+01 s, Total Time:   21200.00 s
       Pressure Iterations:      1
       Maximum Velocity Error:  0.00E+00 on Mesh   1 at (   0   0   0)
       Maximum Pressure Error:  0.00E+00 on Mesh   1 at (   0   0   0)
       ---------------------------------------------------------------
       Max CFL number:  0.00E+00 at (   0,   0,   0)
       Max divergence:  0.17E-17 at (   3,   1,   2)
       Min divergence: -0.87E-18 at (   1,   1,   2)
       Max VN number:   0.00E+00 at (   0,   0,   0)
 
       Time Step   21300   March 16, 2018  16:41:02
       Step Size:    0.100E+01 s, Total Time:   21300.00 s
       Pressure Iterations:      1
       Maximum Velocity Error:  0.00E+00 on Mesh   1 at (   0   0   0)
       Maximum Pressure Error:  0.00E+00 on Mesh   1 at (   0   0   0)
       ---------------------------------------------------------------
       Max CFL number:  0.00E+00 at (   0,   0,   0)
       Max divergence:  0.17E-17 at (   3,   1,   2)
       Min divergence: -0.87E-18 at (   1,   1,   2)
       Max VN number:   0.00E+00 at (   0,   0,   0)
 
       Time Step   21400   March 16, 2018  16:41:03
       Step Size:    0.100E+01 s, Total Time:   21400.00 s
       Pressure Iterations:      1
       Maximum Velocity Error:  0.00E+00 on Mesh   1 at (   0   0   0)
       Maximum Pressure Error:  0.00E+00 on Mesh   1 at (   0   0   0)
       ---------------------------------------------------------------
       Max CFL number:  0.00E+00 at (   0,   0,   0)
       Max divergence:  0.17E-17 at (   3,   1,   2)
       Min divergence: -0.87E-18 at (   1,   1,   2)
       Max VN number:   0.00E+00 at (   0,   0,   0)
 
       Time Step   21500   March 16, 2018  16:41:03
       Step Size:    0.100E+01 s, Total Time:   21500.00 s
       Pressure Iterations:      1
       Maximum Velocity Error:  0.00E+00 on Mesh   1 at (   0   0   0)
       Maximum Pressure Error:  0.00E+00 on Mesh   1 at (   0   0   0)
       ---------------------------------------------------------------
       Max CFL number:  0.00E+00 at (   0,   0,   0)
       Max divergence:  0.17E-17 at (   3,   1,   2)
       Min divergence: -0.87E-18 at (   1,   1,   2)
       Max VN number:   0.00E+00 at (   0,   0,   0)
 
       Time Step   21600   March 16, 2018  16:41:03
       Step Size:    0.100E+01 s, Total Time:   21600.00 s
       Pressure Iterations:      1
       Maximum Velocity Error:  0.00E+00 on Mesh   1 at (   0   0   0)
       Maximum Pressure Error:  0.00E+00 on Mesh   1 at (   0   0   0)
       ---------------------------------------------------------------
       Max CFL number:  0.00E+00 at (   0,   0,   0)
       Max divergence:  0.17E-17 at (   3,   1,   2)
       Min divergence: -0.87E-18 at (   1,   1,   2)
       Max VN number:   0.00E+00 at (   0,   0,   0)
 
       Time Step   21700   March 16, 2018  16:41:03
       Step Size:    0.100E+01 s, Total Time:   21700.00 s
       Pressure Iterations:      1
       Maximum Velocity Error:  0.00E+00 on Mesh   1 at (   0   0   0)
       Maximum Pressure Error:  0.00E+00 on Mesh   1 at (   0   0   0)
       ---------------------------------------------------------------
       Max CFL number:  0.00E+00 at (   0,   0,   0)
       Max divergence:  0.17E-17 at (   3,   1,   2)
       Min divergence: -0.87E-18 at (   1,   1,   2)
       Max VN number:   0.00E+00 at (   0,   0,   0)
 
       Time Step   21800   March 16, 2018  16:41:03
       Step Size:    0.100E+01 s, Total Time:   21800.00 s
       Pressure Iterations:      1
       Maximum Velocity Error:  0.00E+00 on Mesh   1 at (   0   0   0)
       Maximum Pressure Error:  0.00E+00 on Mesh   1 at (   0   0   0)
       ---------------------------------------------------------------
       Max CFL number:  0.00E+00 at (   0,   0,   0)
       Max divergence:  0.17E-17 at (   3,   1,   2)
       Min divergence: -0.87E-18 at (   1,   1,   2)
       Max VN number:   0.00E+00 at (   0,   0,   0)
 
       Time Step   21900   March 16, 2018  16:41:03
       Step Size:    0.100E+01 s, Total Time:   21900.00 s
       Pressure Iterations:      1
       Maximum Velocity Error:  0.00E+00 on Mesh   1 at (   0   0   0)
       Maximum Pressure Error:  0.00E+00 on Mesh   1 at (   0   0   0)
       ---------------------------------------------------------------
       Max CFL number:  0.00E+00 at (   0,   0,   0)
       Max divergence:  0.17E-17 at (   3,   1,   2)
       Min divergence: -0.87E-18 at (   1,   1,   2)
       Max VN number:   0.00E+00 at (   0,   0,   0)
 
       Time Step   22000   March 16, 2018  16:41:03
       Step Size:    0.100E+01 s, Total Time:   22000.00 s
       Pressure Iterations:      1
       Maximum Velocity Error:  0.00E+00 on Mesh   1 at (   0   0   0)
       Maximum Pressure Error:  0.00E+00 on Mesh   1 at (   0   0   0)
       ---------------------------------------------------------------
       Max CFL number:  0.00E+00 at (   0,   0,   0)
       Max divergence:  0.17E-17 at (   3,   1,   2)
       Min divergence: -0.87E-18 at (   1,   1,   2)
       Max VN number:   0.00E+00 at (   0,   0,   0)
 
       Time Step   22100   March 16, 2018  16:41:03
       Step Size:    0.100E+01 s, Total Time:   22100.00 s
       Pressure Iterations:      1
       Maximum Velocity Error:  0.00E+00 on Mesh   1 at (   0   0   0)
       Maximum Pressure Error:  0.00E+00 on Mesh   1 at (   0   0   0)
       ---------------------------------------------------------------
       Max CFL number:  0.00E+00 at (   0,   0,   0)
       Max divergence:  0.17E-17 at (   3,   1,   2)
       Min divergence: -0.87E-18 at (   1,   1,   2)
       Max VN number:   0.00E+00 at (   0,   0,   0)
 
       Time Step   22200   March 16, 2018  16:41:03
       Step Size:    0.100E+01 s, Total Time:   22200.00 s
       Pressure Iterations:      1
       Maximum Velocity Error:  0.00E+00 on Mesh   1 at (   0   0   0)
       Maximum Pressure Error:  0.00E+00 on Mesh   1 at (   0   0   0)
       ---------------------------------------------------------------
       Max CFL number:  0.00E+00 at (   0,   0,   0)
       Max divergence:  0.17E-17 at (   3,   1,   2)
       Min divergence: -0.87E-18 at (   1,   1,   2)
       Max VN number:   0.00E+00 at (   0,   0,   0)
 
       Time Step   22300   March 16, 2018  16:41:03
       Step Size:    0.100E+01 s, Total Time:   22300.00 s
       Pressure Iterations:      1
       Maximum Velocity Error:  0.00E+00 on Mesh   1 at (   0   0   0)
       Maximum Pressure Error:  0.00E+00 on Mesh   1 at (   0   0   0)
       ---------------------------------------------------------------
       Max CFL number:  0.00E+00 at (   0,   0,   0)
       Max divergence:  0.17E-17 at (   3,   1,   2)
       Min divergence: -0.87E-18 at (   1,   1,   2)
       Max VN number:   0.00E+00 at (   0,   0,   0)
 
       Time Step   22400   March 16, 2018  16:41:03
       Step Size:    0.100E+01 s, Total Time:   22400.00 s
       Pressure Iterations:      1
       Maximum Velocity Error:  0.00E+00 on Mesh   1 at (   0   0   0)
       Maximum Pressure Error:  0.00E+00 on Mesh   1 at (   0   0   0)
       ---------------------------------------------------------------
       Max CFL number:  0.00E+00 at (   0,   0,   0)
       Max divergence:  0.17E-17 at (   3,   1,   2)
       Min divergence: -0.87E-18 at (   1,   1,   2)
       Max VN number:   0.00E+00 at (   0,   0,   0)
 
       Time Step   22500   March 16, 2018  16:41:04
       Step Size:    0.100E+01 s, Total Time:   22500.00 s
       Pressure Iterations:      1
       Maximum Velocity Error:  0.00E+00 on Mesh   1 at (   0   0   0)
       Maximum Pressure Error:  0.00E+00 on Mesh   1 at (   0   0   0)
       ---------------------------------------------------------------
       Max CFL number:  0.00E+00 at (   0,   0,   0)
       Max divergence:  0.17E-17 at (   3,   1,   2)
       Min divergence: -0.87E-18 at (   1,   1,   2)
       Max VN number:   0.00E+00 at (   0,   0,   0)
 
       Time Step   22600   March 16, 2018  16:41:04
       Step Size:    0.100E+01 s, Total Time:   22600.00 s
       Pressure Iterations:      1
       Maximum Velocity Error:  0.00E+00 on Mesh   1 at (   0   0   0)
       Maximum Pressure Error:  0.00E+00 on Mesh   1 at (   0   0   0)
       ---------------------------------------------------------------
       Max CFL number:  0.00E+00 at (   0,   0,   0)
       Max divergence:  0.17E-17 at (   3,   1,   2)
       Min divergence: -0.87E-18 at (   1,   1,   2)
       Max VN number:   0.00E+00 at (   0,   0,   0)
 
       Time Step   22700   March 16, 2018  16:41:04
       Step Size:    0.100E+01 s, Total Time:   22700.00 s
       Pressure Iterations:      1
       Maximum Velocity Error:  0.00E+00 on Mesh   1 at (   0   0   0)
       Maximum Pressure Error:  0.00E+00 on Mesh   1 at (   0   0   0)
       ---------------------------------------------------------------
       Max CFL number:  0.00E+00 at (   0,   0,   0)
       Max divergence:  0.17E-17 at (   3,   1,   2)
       Min divergence: -0.87E-18 at (   1,   1,   2)
       Max VN number:   0.00E+00 at (   0,   0,   0)
 
       Time Step   22800   March 16, 2018  16:41:04
       Step Size:    0.100E+01 s, Total Time:   22800.00 s
       Pressure Iterations:      1
       Maximum Velocity Error:  0.00E+00 on Mesh   1 at (   0   0   0)
       Maximum Pressure Error:  0.00E+00 on Mesh   1 at (   0   0   0)
       ---------------------------------------------------------------
       Max CFL number:  0.00E+00 at (   0,   0,   0)
       Max divergence:  0.17E-17 at (   3,   1,   2)
       Min divergence: -0.87E-18 at (   1,   1,   2)
       Max VN number:   0.00E+00 at (   0,   0,   0)
 
       Time Step   22900   March 16, 2018  16:41:04
       Step Size:    0.100E+01 s, Total Time:   22900.00 s
       Pressure Iterations:      1
       Maximum Velocity Error:  0.00E+00 on Mesh   1 at (   0   0   0)
       Maximum Pressure Error:  0.00E+00 on Mesh   1 at (   0   0   0)
       ---------------------------------------------------------------
       Max CFL number:  0.00E+00 at (   0,   0,   0)
       Max divergence:  0.17E-17 at (   3,   1,   2)
       Min divergence: -0.87E-18 at (   1,   1,   2)
       Max VN number:   0.00E+00 at (   0,   0,   0)
 
       Time Step   23000   March 16, 2018  16:41:04
       Step Size:    0.100E+01 s, Total Time:   23000.00 s
       Pressure Iterations:      1
       Maximum Velocity Error:  0.00E+00 on Mesh   1 at (   0   0   0)
       Maximum Pressure Error:  0.00E+00 on Mesh   1 at (   0   0   0)
       ---------------------------------------------------------------
       Max CFL number:  0.00E+00 at (   0,   0,   0)
       Max divergence:  0.17E-17 at (   3,   1,   2)
       Min divergence: -0.87E-18 at (   1,   1,   2)
       Max VN number:   0.00E+00 at (   0,   0,   0)
 
       Time Step   23100   March 16, 2018  16:41:04
       Step Size:    0.100E+01 s, Total Time:   23100.00 s
       Pressure Iterations:      1
       Maximum Velocity Error:  0.00E+00 on Mesh   1 at (   0   0   0)
       Maximum Pressure Error:  0.00E+00 on Mesh   1 at (   0   0   0)
       ---------------------------------------------------------------
       Max CFL number:  0.00E+00 at (   0,   0,   0)
       Max divergence:  0.17E-17 at (   3,   1,   2)
       Min divergence: -0.87E-18 at (   1,   1,   2)
       Max VN number:   0.00E+00 at (   0,   0,   0)
 
       Time Step   23200   March 16, 2018  16:41:04
       Step Size:    0.100E+01 s, Total Time:   23200.00 s
       Pressure Iterations:      1
       Maximum Velocity Error:  0.00E+00 on Mesh   1 at (   0   0   0)
       Maximum Pressure Error:  0.00E+00 on Mesh   1 at (   0   0   0)
       ---------------------------------------------------------------
       Max CFL number:  0.00E+00 at (   0,   0,   0)
       Max divergence:  0.17E-17 at (   3,   1,   2)
       Min divergence: -0.87E-18 at (   1,   1,   2)
       Max VN number:   0.00E+00 at (   0,   0,   0)
 
       Time Step   23300   March 16, 2018  16:41:04
       Step Size:    0.100E+01 s, Total Time:   23300.00 s
       Pressure Iterations:      1
       Maximum Velocity Error:  0.00E+00 on Mesh   1 at (   0   0   0)
       Maximum Pressure Error:  0.00E+00 on Mesh   1 at (   0   0   0)
       ---------------------------------------------------------------
       Max CFL number:  0.00E+00 at (   0,   0,   0)
       Max divergence:  0.17E-17 at (   3,   1,   2)
       Min divergence: -0.87E-18 at (   1,   1,   2)
       Max VN number:   0.00E+00 at (   0,   0,   0)
 
       Time Step   23400   March 16, 2018  16:41:05
       Step Size:    0.100E+01 s, Total Time:   23400.00 s
       Pressure Iterations:      1
       Maximum Velocity Error:  0.00E+00 on Mesh   1 at (   0   0   0)
       Maximum Pressure Error:  0.00E+00 on Mesh   1 at (   0   0   0)
       ---------------------------------------------------------------
       Max CFL number:  0.00E+00 at (   0,   0,   0)
       Max divergence:  0.17E-17 at (   3,   1,   2)
       Min divergence: -0.87E-18 at (   1,   1,   2)
       Max VN number:   0.00E+00 at (   0,   0,   0)
 
       Time Step   23500   March 16, 2018  16:41:05
       Step Size:    0.100E+01 s, Total Time:   23500.00 s
       Pressure Iterations:      1
       Maximum Velocity Error:  0.00E+00 on Mesh   1 at (   0   0   0)
       Maximum Pressure Error:  0.00E+00 on Mesh   1 at (   0   0   0)
       ---------------------------------------------------------------
       Max CFL number:  0.00E+00 at (   0,   0,   0)
       Max divergence:  0.17E-17 at (   3,   1,   2)
       Min divergence: -0.87E-18 at (   1,   1,   2)
       Max VN number:   0.00E+00 at (   0,   0,   0)
 
       Time Step   23600   March 16, 2018  16:41:05
       Step Size:    0.100E+01 s, Total Time:   23600.00 s
       Pressure Iterations:      1
       Maximum Velocity Error:  0.00E+00 on Mesh   1 at (   0   0   0)
       Maximum Pressure Error:  0.00E+00 on Mesh   1 at (   0   0   0)
       ---------------------------------------------------------------
       Max CFL number:  0.00E+00 at (   0,   0,   0)
       Max divergence:  0.17E-17 at (   3,   1,   2)
       Min divergence: -0.87E-18 at (   1,   1,   2)
       Max VN number:   0.00E+00 at (   0,   0,   0)
 
       Time Step   23700   March 16, 2018  16:41:05
       Step Size:    0.100E+01 s, Total Time:   23700.00 s
       Pressure Iterations:      1
       Maximum Velocity Error:  0.00E+00 on Mesh   1 at (   0   0   0)
       Maximum Pressure Error:  0.00E+00 on Mesh   1 at (   0   0   0)
       ---------------------------------------------------------------
       Max CFL number:  0.00E+00 at (   0,   0,   0)
       Max divergence:  0.17E-17 at (   3,   1,   2)
       Min divergence: -0.87E-18 at (   1,   1,   2)
       Max VN number:   0.00E+00 at (   0,   0,   0)
 
       Time Step   23800   March 16, 2018  16:41:05
       Step Size:    0.100E+01 s, Total Time:   23800.00 s
       Pressure Iterations:      1
       Maximum Velocity Error:  0.00E+00 on Mesh   1 at (   0   0   0)
       Maximum Pressure Error:  0.00E+00 on Mesh   1 at (   0   0   0)
       ---------------------------------------------------------------
       Max CFL number:  0.00E+00 at (   0,   0,   0)
       Max divergence:  0.17E-17 at (   3,   1,   2)
       Min divergence: -0.87E-18 at (   1,   1,   2)
       Max VN number:   0.00E+00 at (   0,   0,   0)
 
       Time Step   23900   March 16, 2018  16:41:05
       Step Size:    0.100E+01 s, Total Time:   23900.00 s
       Pressure Iterations:      1
       Maximum Velocity Error:  0.00E+00 on Mesh   1 at (   0   0   0)
       Maximum Pressure Error:  0.00E+00 on Mesh   1 at (   0   0   0)
       ---------------------------------------------------------------
       Max CFL number:  0.00E+00 at (   0,   0,   0)
       Max divergence:  0.17E-17 at (   3,   1,   2)
       Min divergence: -0.87E-18 at (   1,   1,   2)
       Max VN number:   0.00E+00 at (   0,   0,   0)
 
       Time Step   24000   March 16, 2018  16:41:05
       Step Size:    0.100E+01 s, Total Time:   24000.00 s
       Pressure Iterations:      1
       Maximum Velocity Error:  0.00E+00 on Mesh   1 at (   0   0   0)
       Maximum Pressure Error:  0.00E+00 on Mesh   1 at (   0   0   0)
       ---------------------------------------------------------------
       Max CFL number:  0.00E+00 at (   0,   0,   0)
       Max divergence:  0.17E-17 at (   3,   1,   2)
       Min divergence: -0.87E-18 at (   1,   1,   2)
       Max VN number:   0.00E+00 at (   0,   0,   0)
 


 Time Stepping Wall Clock Time (s):       25.927
 Total Elapsed Wall Clock Time (s):       25.983

STOP: FDS completed successfully (CHID: birch_tga_1step_2)
